7AU4_ligand1
 OpenBabel04052409413D

 34 37  0  0  1  0  0  0  0  0999 V2000
   12.1984   -0.2807   23.0852 C   0  0  0  0  0  0  0  0  0  0  0  0
    6.7043   -1.0746   19.2898 C   0  0  0  0  0  0  0  0  0  0  0  0
    5.7708    0.0075   18.8747 C   0  0  0  0  0  0  0  0  0  0  0  0
    4.9267    0.8045   19.6911 C   0  0  0  0  0  0  0  0  0  0  0  0
    4.2298    1.5381   18.7901 C   0  0  0  0  0  0  0  0  0  0  0  0
    7.7527    0.0060   21.2220 C   0  0  0  0  0  0  0  0  0  0  0  0
   11.3978    0.7639   23.5954 C   0  0  0  0  0  0  0  0  0  0  0  0
   11.6145   -1.4395   22.5195 C   0  0  0  0  0  0  0  0  0  0  0  0
   10.2155   -1.5516   22.4130 C   0  0  0  0  0  0  0  0  0  0  0  0
    9.4335   -0.4810   22.8847 C   0  0  0  0  0  0  0  0  0  0  0  0
   10.0040    0.6388   23.4801 C   0  0  0  0  0  0  0  0  0  0  0  0
    8.9603    1.6589   23.8670 C   0  0  0  0  0  0  0  0  0  0  0  0
    7.6170    0.9306   23.6087 C   0  0  0  0  0  0  0  0  0  0  0  0
    7.9579   -0.2724   22.6949 C   0  0  1  0  0  0  0  0  0  0  0  0
    6.5753   -1.8190   21.6640 C   0  0  0  0  0  0  0  0  0  0  0  0
    7.1040   -1.4374   22.8347 N   0  0  0  0  0  0  0  0  0  0  0  0
    7.0190   -0.9839   20.7093 N   0  0  0  0  0  0  0  0  0  0  0  0
    5.6715    0.3083   17.6005 N   0  0  0  0  0  0  0  0  0  0  0  0
    5.8098   -2.7683   21.5032 O   0  0  0  0  0  0  0  0  0  0  0  0
    4.6419    1.2427   17.5344 O   0  0  0  0  0  0  0  0  0  0  0  0
    8.2137    0.9817   20.6274 O   0  0  0  0  0  0  0  0  0  0  0  0
   13.9085   -0.1382   23.1270 Cl  0  0  0  0  0  0  0  0  0  0  0  0
    7.6306   -1.0142   18.7165 H   0  0  0  0  0  0  0  0  0  0  0  0
    6.2605   -2.0416   19.0468 H   0  0  0  0  0  0  0  0  0  0  0  0
    4.8223    0.8141   20.7617 H   0  0  0  0  0  0  0  0  0  0  0  0
    3.4383    2.2661   18.8834 H   0  0  0  0  0  0  0  0  0  0  0  0
   11.8450    1.6493   24.0238 H   0  0  0  0  0  0  0  0  0  0  0  0
   12.2446   -2.2282   22.1340 H   0  0  0  0  0  0  0  0  0  0  0  0
    9.7657   -2.4080   21.9322 H   0  0  0  0  0  0  0  0  0  0  0  0
    9.0631    2.5350   23.2255 H   0  0  0  0  0  0  0  0  0  0  0  0
    9.0685    1.9717   24.9061 H   0  0  0  0  0  0  0  0  0  0  0  0
    6.8468    1.5908   23.2054 H   0  0  0  0  0  0  0  0  0  0  0  0
    7.2455    0.5496   24.5597 H   0  0  0  0  0  0  0  0  0  0  0  0
    6.9268   -1.8882   23.7205 H   0  0  0  0  0  0  0  0  0  0  0  0
  1  7  2  0  0  0  0
  1  8  1  0  0  0  0
  1 22  1  0  0  0  0
  2  3  1  0  0  0  0
  2 17  1  0  0  0  0
  2 23  1  0  0  0  0
  2 24  1  0  0  0  0
  3  4  1  0  0  0  0
  3 18  2  0  0  0  0
  4  5  2  0  0  0  0
  4 25  1  0  0  0  0
  5 20  1  0  0  0  0
  5 26  1  0  0  0  0
  6 17  1  0  0  0  0
  6 21  2  0  0  0  0
  7 11  1  0  0  0  0
  7 27  1  0  0  0  0
  8  9  2  0  0  0  0
  8 28  1  0  0  0  0
  9 10  1  0  0  0  0
  9 29  1  0  0  0  0
 10 11  2  0  0  0  0
 10 14  1  0  0  0  0
 11 12  1  0  0  0  0
 12 13  1  0  0  0  0
 12 30  1  0  0  0  0
 12 31  1  0  0  0  0
 13 14  1  0  0  0  0
 13 32  1  0  0  0  0
 13 33  1  0  0  0  0
 14  6  1  6  0  0  0
 14 16  1  0  0  0  0
 15 16  1  0  0  0  0
 15 17  1  0  0  0  0
 15 19  2  0  0  0  0
 16 34  1  0  0  0  0
 18 20  1  0  0  0  0
M  END
$$$$
