7B2J_ligand1
 OpenBabel04052409413D

 37 39  0  0  0  0  0  0  0  0999 V2000
   10.0748   -0.1742   22.8842 N   0  0  0  0  0  0  0  0  0  0  0  0
    7.8442   -0.4248   18.7970 N   0  0  0  0  0  0  0  0  0  0  0  0
   10.0288   -1.4823   23.5582 C   0  0  0  0  0  0  0  0  0  0  0  0
    9.3655    0.1701   21.7868 C   0  0  0  0  0  0  0  0  0  0  0  0
    8.5205   -0.9023   21.0904 C   0  0  0  0  0  0  0  0  0  0  0  0
    5.8862    0.4466   19.1038 C   0  0  0  0  0  0  0  0  0  0  0  0
    4.5895    0.9603   18.9791 C   0  0  0  0  0  0  0  0  0  0  0  0
    4.4015    1.1826   21.4133 C   0  0  0  0  0  0  0  0  0  0  0  0
   11.0106    0.7582   23.5226 C   0  0  0  0  0  0  0  0  0  0  0  0
   13.8509   -1.8403   24.1568 C   0  0  0  0  0  0  0  0  0  0  0  0
    5.6737    0.6069   21.5563 C   0  0  0  0  0  0  0  0  0  0  0  0
    6.3884    0.2513   20.4007 C   0  0  0  0  0  0  0  0  0  0  0  0
   12.4253    0.1644   23.4654 C   0  0  0  0  0  0  0  0  0  0  0  0
   12.4606   -1.2045   24.1646 C   0  0  0  0  0  0  0  0  0  0  0  0
   11.4161   -2.1331   23.5314 C   0  0  0  0  0  0  0  0  0  0  0  0
    3.8560    1.3409   20.1270 C   0  0  0  0  0  0  0  0  0  0  0  0
    7.5961   -0.3472   20.1327 N   0  0  0  0  0  0  0  0  0  0  0  0
    6.8138    0.0427   18.1631 N   0  0  0  0  0  0  0  0  0  0  0  0
    9.3953    1.3084   21.3142 O   0  0  0  0  0  0  0  0  0  0  0  0
    9.3268   -2.1920   23.1318 H   0  0  0  0  0  0  0  0  0  0  0  0
    9.7070   -1.3313   24.5895 H   0  0  0  0  0  0  0  0  0  0  0  0
    7.9071   -1.4402   21.8085 H   0  0  0  0  0  0  0  0  0  0  0  0
    9.1756   -1.6230   20.6059 H   0  0  0  0  0  0  0  0  0  0  0  0
    4.1633    1.0572   17.9915 H   0  0  0  0  0  0  0  0  0  0  0  0
    3.8332    1.4720   22.2857 H   0  0  0  0  0  0  0  0  0  0  0  0
   10.7124    0.9113   24.5591 H   0  0  0  0  0  0  0  0  0  0  0  0
   11.0187    1.7486   23.0655 H   0  0  0  0  0  0  0  0  0  0  0  0
   13.8399   -2.8237   24.6289 H   0  0  0  0  0  0  0  0  0  0  0  0
   14.2265   -1.9592   23.1405 H   0  0  0  0  0  0  0  0  0  0  0  0
   14.5510   -1.2224   24.7151 H   0  0  0  0  0  0  0  0  0  0  0  0
    6.0868    0.4290   22.5347 H   0  0  0  0  0  0  0  0  0  0  0  0
   13.1206    0.8472   23.9396 H   0  0  0  0  0  0  0  0  0  0  0  0
   12.7424    0.0634   22.4258 H   0  0  0  0  0  0  0  0  0  0  0  0
   12.1839   -1.0454   25.2071 H   0  0  0  0  0  0  0  0  0  0  0  0
   11.6935   -2.3652   22.5017 H   0  0  0  0  0  0  0  0  0  0  0  0
   11.3843   -3.0794   24.0711 H   0  0  0  0  0  0  0  0  0  0  0  0
    2.8599    1.7411   20.0225 H   0  0  0  0  0  0  0  0  0  0  0  0
  1  3  1  0  0  0  0
  1  4  1  0  0  0  0
  1  9  1  0  0  0  0
  2 17  1  0  0  0  0
  2 18  2  0  0  0  0
  3 15  1  0  0  0  0
  3 20  1  0  0  0  0
  3 21  1  0  0  0  0
  4  5  1  0  0  0  0
  4 19  2  0  0  0  0
  5 17  1  0  0  0  0
  5 22  1  0  0  0  0
  5 23  1  0  0  0  0
  6  7  2  0  0  0  0
  6 12  1  0  0  0  0
  6 18  1  0  0  0  0
  7 16  1  0  0  0  0
  7 24  1  0  0  0  0
  8 11  1  0  0  0  0
  8 16  2  0  0  0  0
  8 25  1  0  0  0  0
  9 13  1  0  0  0  0
  9 26  1  0  0  0  0
  9 27  1  0  0  0  0
 10 14  1  0  0  0  0
 10 28  1  0  0  0  0
 10 29  1  0  0  0  0
 10 30  1  0  0  0  0
 11 12  2  0  0  0  0
 11 31  1  0  0  0  0
 12 17  1  0  0  0  0
 13 14  1  0  0  0  0
 13 32  1  0  0  0  0
 13 33  1  0  0  0  0
 14 15  1  0  0  0  0
 14 34  1  0  0  0  0
 15 35  1  0  0  0  0
 15 36  1  0  0  0  0
 16 37  1  0  0  0  0
M  END
$$$$
