7B2U_ligand1
 OpenBabel04052409413D

 39 41  0  0  1  0  0  0  0  0999 V2000
   11.0352   -1.1424   22.9982 C   0  0  0  0  0  0  0  0  0  0  0  0
    4.4954    1.1835   19.0666 C   0  0  0  0  0  0  0  0  0  0  0  0
   12.3316   -1.8971   22.6470 C   0  0  0  0  0  0  0  0  0  0  0  0
   13.5695   -1.2794   23.2941 C   0  0  0  0  0  0  0  0  0  0  0  0
    6.4195   -0.0075   19.8839 C   0  0  0  0  0  0  0  0  0  0  0  0
   13.3746   -1.2225   24.8101 C   0  0  0  0  0  0  0  0  0  0  0  0
   12.1728   -0.3507   25.1579 C   0  0  0  0  0  0  0  0  0  0  0  0
   10.9049   -0.9135   24.5228 C   0  0  0  0  0  0  0  0  0  0  0  0
    8.1696   -0.2857   21.5380 C   0  0  0  0  0  0  0  0  0  0  0  0
    7.0063    0.1715   18.6153 C   0  0  0  0  0  0  0  0  0  0  0  0
    5.1613    1.3247   17.8360 C   0  0  0  0  0  0  0  0  0  0  0  0
    7.4012   -2.2115   22.4465 N   0  0  0  0  0  0  0  0  0  0  0  0
    7.0732   -0.7171   20.9099 N   0  0  0  0  0  0  0  0  0  0  0  0
    9.8382   -1.9599   22.4882 C   0  0  0  0  0  0  0  0  0  0  0  0
    6.3947    0.8292   17.6085 N   0  0  0  0  0  0  0  0  0  0  0  0
    6.6010   -1.8571   21.4416 C   0  0  0  0  0  0  0  0  0  0  0  0
    5.1360    0.5159   20.1145 C   0  0  0  0  0  0  0  0  0  0  0  0
    8.4781   -1.2696   22.6493 C   0  0  1  0  0  0  0  0  0  0  0  0
    3.2405    1.6340   19.2450 F   0  0  0  0  0  0  0  0  0  0  0  0
    5.6178   -2.4890   21.0645 O   0  0  0  0  0  0  0  0  0  0  0  0
    8.8279    0.7259   21.2898 O   0  0  0  0  0  0  0  0  0  0  0  0
   11.0632   -0.1731   22.4998 H   0  0  0  0  0  0  0  0  0  0  0  0
   12.4635   -1.9534   21.5667 H   0  0  0  0  0  0  0  0  0  0  0  0
   12.2474   -2.9247   22.9960 H   0  0  0  0  0  0  0  0  0  0  0  0
   13.7572   -0.2826   22.8919 H   0  0  0  0  0  0  0  0  0  0  0  0
   14.4364   -1.8914   23.0543 H   0  0  0  0  0  0  0  0  0  0  0  0
   14.2525   -0.8335   25.2982 H   0  0  0  0  0  0  0  0  0  0  0  0
   13.2366   -2.2311   25.2021 H   0  0  0  0  0  0  0  0  0  0  0  0
   12.3408    0.6760   24.8296 H   0  0  0  0  0  0  0  0  0  0  0  0
   12.0430   -0.3274   26.2375 H   0  0  0  0  0  0  0  0  0  0  0  0
   10.6598   -1.8571   25.0120 H   0  0  0  0  0  0  0  0  0  0  0  0
   10.0873   -0.2303   24.7452 H   0  0  0  0  0  0  0  0  0  0  0  0
    7.9778   -0.2404   18.3892 H   0  0  0  0  0  0  0  0  0  0  0  0
    4.6865    1.8169   17.0033 H   0  0  0  0  0  0  0  0  0  0  0  0
    7.2751   -3.0369   23.0153 H   0  0  0  0  0  0  0  0  0  0  0  0
    9.8166   -2.9142   23.0167 H   0  0  0  0  0  0  0  0  0  0  0  0
    9.9904   -2.2162   21.4397 H   0  0  0  0  0  0  0  0  0  0  0  0
    4.6361    0.3835   21.0638 H   0  0  0  0  0  0  0  0  0  0  0  0
    8.3354   -0.8025   23.6227 H   0  0  0  0  0  0  0  0  0  0  0  0
  1  3  1  0  0  0  0
  1  8  1  0  0  0  0
  1 14  1  0  0  0  0
  1 22  1  0  0  0  0
  2 11  2  0  0  0  0
  2 17  1  0  0  0  0
  2 19  1  0  0  0  0
  3  4  1  0  0  0  0
  3 23  1  0  0  0  0
  3 24  1  0  0  0  0
  4  6  1  0  0  0  0
  4 25  1  0  0  0  0
  4 26  1  0  0  0  0
  5 10  1  0  0  0  0
  5 13  1  0  0  0  0
  5 17  2  0  0  0  0
  6  7  1  0  0  0  0
  6 27  1  0  0  0  0
  6 28  1  0  0  0  0
  7  8  1  0  0  0  0
  7 29  1  0  0  0  0
  7 30  1  0  0  0  0
  8 31  1  0  0  0  0
  8 32  1  0  0  0  0
  9 13  1  0  0  0  0
  9 18  1  0  0  0  0
  9 21  2  0  0  0  0
 10 15  2  0  0  0  0
 10 33  1  0  0  0  0
 11 15  1  0  0  0  0
 11 34  1  0  0  0  0
 12 16  1  0  0  0  0
 12 18  1  0  0  0  0
 12 35  1  0  0  0  0
 13 16  1  0  0  0  0
 14 18  1  0  0  0  0
 14 36  1  0  0  0  0
 14 37  1  0  0  0  0
 16 20  2  0  0  0  0
 17 38  1  0  0  0  0
 18 39  1  1  0  0  0
M  END
$$$$
