7B77_ligand1
 OpenBabel04052409413D

 37 39  0  0  0  0  0  0  0  0999 V2000
   12.1659   -0.6324   23.7315 C   0  0  0  0  0  0  0  0  0  0  0  0
    5.7446    0.6232   21.5495 C   0  0  0  0  0  0  0  0  0  0  0  0
   12.8286   -1.2357   24.8365 C   0  0  0  0  0  0  0  0  0  0  0  0
   13.8751   -1.9459   24.3238 C   0  0  0  0  0  0  0  0  0  0  0  0
    4.5872    0.9246   18.9965 C   0  0  0  0  0  0  0  0  0  0  0  0
   12.8860   -1.0099   22.6296 C   0  0  0  0  0  0  0  0  0  0  0  0
    9.3325   -0.0546   21.8803 C   0  0  0  0  0  0  0  0  0  0  0  0
    8.5376   -1.0152   20.9916 C   0  0  0  0  0  0  0  0  0  0  0  0
    5.9009    0.4478   19.0934 C   0  0  0  0  0  0  0  0  0  0  0  0
    3.8720    1.3002   20.1555 C   0  0  0  0  0  0  0  0  0  0  0  0
    4.4551    1.1720   21.4286 C   0  0  0  0  0  0  0  0  0  0  0  0
    9.8104   -0.5161   23.0606 N   0  0  0  0  0  0  0  0  0  0  0  0
    7.6308   -0.3500   20.0824 N   0  0  0  0  0  0  0  0  0  0  0  0
   10.8918    0.1726   23.7744 C   0  0  0  0  0  0  0  0  0  0  0  0
    7.8517   -0.4096   18.7395 N   0  0  0  0  0  0  0  0  0  0  0  0
    8.0139   -1.6510   24.3716 C   0  0  0  0  0  0  0  0  0  0  0  0
    6.4373    0.2656   20.3794 C   0  0  0  0  0  0  0  0  0  0  0  0
    9.3824   -1.7819   23.6851 C   0  0  0  0  0  0  0  0  0  0  0  0
    6.8069    0.0568   18.1304 N   0  0  0  0  0  0  0  0  0  0  0  0
   13.9282   -1.8128   22.9717 O   0  0  0  0  0  0  0  0  0  0  0  0
    9.5676    1.0821   21.4643 O   0  0  0  0  0  0  0  0  0  0  0  0
    6.1940    0.4824   22.5190 H   0  0  0  0  0  0  0  0  0  0  0  0
   12.5556   -1.1816   25.8797 H   0  0  0  0  0  0  0  0  0  0  0  0
   14.6408   -2.5660   24.7633 H   0  0  0  0  0  0  0  0  0  0  0  0
    4.1354    1.0034   18.0194 H   0  0  0  0  0  0  0  0  0  0  0  0
   12.7756   -0.8277   21.5720 H   0  0  0  0  0  0  0  0  0  0  0  0
    7.9291   -1.7133   21.5617 H   0  0  0  0  0  0  0  0  0  0  0  0
    9.2517   -1.6099   20.4297 H   0  0  0  0  0  0  0  0  0  0  0  0
    2.8664    1.6805   20.0721 H   0  0  0  0  0  0  0  0  0  0  0  0
    3.9042    1.4685   22.3087 H   0  0  0  0  0  0  0  0  0  0  0  0
   11.1008    1.1714   23.3875 H   0  0  0  0  0  0  0  0  0  0  0  0
   10.5938    0.3117   24.8152 H   0  0  0  0  0  0  0  0  0  0  0  0
    7.7311   -2.5898   24.8469 H   0  0  0  0  0  0  0  0  0  0  0  0
    8.0362   -0.8848   25.1466 H   0  0  0  0  0  0  0  0  0  0  0  0
    7.2212   -1.3903   23.6713 H   0  0  0  0  0  0  0  0  0  0  0  0
   10.0994   -2.0976   24.4437 H   0  0  0  0  0  0  0  0  0  0  0  0
    9.3846   -2.5980   22.9621 H   0  0  0  0  0  0  0  0  0  0  0  0
  1  3  1  0  0  0  0
  1  6  2  0  0  0  0
  1 14  1  0  0  0  0
  2 11  2  0  0  0  0
  2 17  1  0  0  0  0
  2 22  1  0  0  0  0
  3  4  2  0  0  0  0
  3 23  1  0  0  0  0
  4 20  1  0  0  0  0
  4 24  1  0  0  0  0
  5  9  1  0  0  0  0
  5 10  2  0  0  0  0
  5 25  1  0  0  0  0
  6 20  1  0  0  0  0
  6 26  1  0  0  0  0
  7  8  1  0  0  0  0
  7 12  1  0  0  0  0
  7 21  2  0  0  0  0
  8 13  1  0  0  0  0
  8 27  1  0  0  0  0
  8 28  1  0  0  0  0
  9 17  2  0  0  0  0
  9 19  1  0  0  0  0
 10 11  1  0  0  0  0
 10 29  1  0  0  0  0
 11 30  1  0  0  0  0
 12 14  1  0  0  0  0
 12 18  1  0  0  0  0
 13 15  1  0  0  0  0
 13 17  1  0  0  0  0
 14 31  1  0  0  0  0
 14 32  1  0  0  0  0
 15 19  2  0  0  0  0
 16 18  1  0  0  0  0
 16 33  1  0  0  0  0
 16 34  1  0  0  0  0
 16 35  1  0  0  0  0
 18 36  1  0  0  0  0
 18 37  1  0  0  0  0
M  END
$$$$
