KFU
  -OEChem-05102419323D

 36 39  0     1  0  0  0  0  0999 V2000
    2.9040   -1.9840    1.5410 N   0  0  0  0  0  0  0  0  0  0  0  0
   -1.1730    2.5180    0.5920 C   0  0  0  0  0  0  0  0  0  0  0  0
   -1.1400    1.3700   -0.4440 C   0  0  1  0  0  0  0  0  0  0  0  0
   -0.0440    0.3870   -0.1230 C   0  0  0  0  0  0  0  0  0  0  0  0
    2.2470   -0.0890    0.2970 C   0  0  0  0  0  0  0  0  0  0  0  0
    1.9630   -1.1400    1.1430 C   0  0  0  0  0  0  0  0  0  0  0  0
    4.5540   -0.8480    0.3030 C   0  0  0  0  0  0  0  0  0  0  0  0
    5.2530    1.2270   -1.4000 C   0  0  0  0  0  0  0  0  0  0  0  0
    3.5770    0.0780   -0.1470 C   0  0  0  0  0  0  0  0  0  0  0  0
   -3.0260   -0.4750   -0.6480 C   0  0  0  0  0  0  0  0  0  0  0  0
   -0.3180   -0.7680    0.1240 O   0  0  0  0  0  0  0  0  0  0  0  0
   -2.5800    2.7830    0.7290 O   0  0  0  0  0  0  0  0  0  0  0  0
   -2.5060    0.7390   -0.2560 C   0  0  0  0  0  0  0  0  0  0  0  0
   -3.2800    1.6480    0.4550 C   0  0  0  0  0  0  0  0  0  0  0  0
   -4.5910    1.3090    0.7760 C   0  0  0  0  0  0  0  0  0  0  0  0
   -5.1100    0.0910    0.3870 C   0  0  0  0  0  0  0  0  0  0  0  0
   -4.3320   -0.8040   -0.3270 C   0  0  0  0  0  0  0  0  0  0  0  0
   -4.9920   -2.3320   -0.8190 Cl  0  0  0  0  0  0  0  0  0  0  0  0
    1.2420    0.7910   -0.1120 N   0  0  0  0  0  0  0  0  0  0  0  0
    3.9530    1.1180   -1.0070 C   0  0  0  0  0  0  0  0  0  0  0  0
    6.2140    0.3190   -0.9600 C   0  0  0  0  0  0  0  0  0  0  0  0
    5.8850   -0.7040   -0.1240 C   0  0  0  0  0  0  0  0  0  0  0  0
    4.1570   -1.8830    1.1640 C   0  0  0  0  0  0  0  0  0  0  0  0
   -0.7470    2.1940    1.5420 H   0  0  0  0  0  0  0  0  0  0  0  0
   -0.6500    3.3970    0.2160 H   0  0  0  0  0  0  0  0  0  0  0  0
   -1.0270    1.7610   -1.4550 H   0  0  0  0  0  0  0  0  0  0  0  0
    0.9500   -1.2790    1.4900 H   0  0  0  0  0  0  0  0  0  0  0  0
    5.5420    2.0280   -2.0630 H   0  0  0  0  0  0  0  0  0  0  0  0
   -2.4150   -1.1690   -1.2050 H   0  0  0  0  0  0  0  0  0  0  0  0
   -5.2050    2.0010    1.3330 H   0  0  0  0  0  0  0  0  0  0  0  0
   -6.1280   -0.1660    0.6400 H   0  0  0  0  0  0  0  0  0  0  0  0
    1.4690    1.6930   -0.3880 H   0  0  0  0  0  0  0  0  0  0  0  0
    3.2170    1.8280   -1.3550 H   0  0  0  0  0  0  0  0  0  0  0  0
    7.2380    0.4290   -1.2880 H   0  0  0  0  0  0  0  0  0  0  0  0
    6.6410   -1.3990    0.2090 H   0  0  0  0  0  0  0  0  0  0  0  0
    4.8850   -2.5980    1.5180 H   0  0  0  0  0  0  0  0  0  0  0  0
 21 22  2  0  0  0  0
  7 22  1  0  0  0  0
  8 21  1  0  0  0  0
  7 23  2  0  0  0  0
  1 23  1  0  0  0  0
  7  9  1  0  0  0  0
  8 20  2  0  0  0  0
  1  6  2  0  0  0  0
  9 20  1  0  0  0  0
  5  9  2  0  0  0  0
  5  6  1  0  0  0  0
  5 19  1  0  0  0  0
  4 19  1  0  0  0  0
  3  4  1  0  0  0  0
  4 11  2  0  0  0  0
  2  3  1  0  0  0  0
  3 13  1  0  0  0  0
  2 12  1  0  0  0  0
 10 13  2  0  0  0  0
 13 14  1  0  0  0  0
 10 17  1  0  0  0  0
 12 14  1  0  0  0  0
 14 15  2  0  0  0  0
 17 18  1  0  0  0  0
 16 17  2  0  0  0  0
 15 16  1  0  0  0  0
  2 24  1  0  0  0  0
  2 25  1  0  0  0  0
  3 26  1  0  0  0  0
  6 27  1  0  0  0  0
  8 28  1  0  0  0  0
 10 29  1  0  0  0  0
 15 30  1  0  0  0  0
 16 31  1  0  0  0  0
 19 32  1  0  0  0  0
 20 33  1  0  0  0  0
 21 34  1  0  0  0  0
 22 35  1  0  0  0  0
 23 36  1  0  0  0  0
M  END
> <OPENEYE_ISO_SMILES>
c1ccc2c(c1)cncc2NC(=O)[C@@H]3COc4c3cc(cc4)Cl

> <OPENEYE_INCHI>
InChI=1S/C18H13ClN2O2/c19-12-5-6-17-14(7-12)15(10-23-17)18(22)21-16-9-20-8-11-3-1-2-4-13(11)16/h1-9,15H,10H2,(H,21,22)/t15-/m1/s1

> <OPENEYE_INCHIKEY>
VNWMUCGFGSYBMK-OAHLLOKOSA-N

> <FORMULA>
C18H13ClN2O2

$$$$
