KOI
  -OEChem-05102419323D

 28 29  0     0  0  0  0  0  0999 V2000
   -5.3940    0.1540   -0.1310 N   0  0  0  0  0  0  0  0  0  0  0  0
    1.6330    1.0390    0.3260 C   0  0  0  0  0  0  0  0  0  0  0  0
    0.3820    1.3430    1.1110 C   0  0  0  0  0  0  0  0  0  0  0  0
   -0.7820    0.6020    0.5060 C   0  0  0  0  0  0  0  0  0  0  0  0
   -3.1100    0.1150    0.4280 C   0  0  0  0  0  0  0  0  0  0  0  0
   -2.9680   -1.1110   -0.2190 C   0  0  0  0  0  0  0  0  0  0  0  0
   -5.2930   -1.0050   -0.7510 C   0  0  0  0  0  0  0  0  0  0  0  0
   -0.6140   -0.1030   -0.4660 O   0  0  0  0  0  0  0  0  0  0  0  0
    1.9840    1.8340   -0.7490 C   0  0  0  0  0  0  0  0  0  0  0  0
    3.1310    1.5560   -1.4690 C   0  0  0  0  0  0  0  0  0  0  0  0
    3.9280    0.4840   -1.1140 C   0  0  0  0  0  0  0  0  0  0  0  0
    2.4310   -0.0300    0.6860 C   0  0  0  0  0  0  0  0  0  0  0  0
    3.5770   -0.3120   -0.0370 C   0  0  0  0  0  0  0  0  0  0  0  0
    4.5800   -1.6550    0.4140 Cl  0  0  0  0  0  0  0  0  0  0  0  0
   -2.0110    0.7230    1.0460 N   0  0  0  0  0  0  0  0  0  0  0  0
   -4.3580    0.7240    0.4510 C   0  0  0  0  0  0  0  0  0  0  0  0
   -4.0840   -1.6730   -0.8160 C   0  0  0  0  0  0  0  0  0  0  0  0
    0.5160    1.0270    2.1450 H   0  0  0  0  0  0  0  0  0  0  0  0
    0.1860    2.4150    1.0810 H   0  0  0  0  0  0  0  0  0  0  0  0
   -2.0110   -1.6100   -0.2540 H   0  0  0  0  0  0  0  0  0  0  0  0
   -6.1670   -1.4390   -1.2150 H   0  0  0  0  0  0  0  0  0  0  0  0
    1.3620    2.6710   -1.0270 H   0  0  0  0  0  0  0  0  0  0  0  0
    3.4050    2.1770   -2.3090 H   0  0  0  0  0  0  0  0  0  0  0  0
    4.8240    0.2670   -1.6760 H   0  0  0  0  0  0  0  0  0  0  0  0
    2.1570   -0.6510    1.5260 H   0  0  0  0  0  0  0  0  0  0  0  0
   -2.1350    1.2320    1.8620 H   0  0  0  0  0  0  0  0  0  0  0  0
   -4.4800    1.6740    0.9500 H   0  0  0  0  0  0  0  0  0  0  0  0
   -4.0110   -2.6220   -1.3270 H   0  0  0  0  0  0  0  0  0  0  0  0
  1  7  2  0  0  0  0
  1 16  1  0  0  0  0
  7 17  1  0  0  0  0
  5 16  2  0  0  0  0
  6 17  2  0  0  0  0
  5  6  1  0  0  0  0
  5 15  1  0  0  0  0
  4 15  1  0  0  0  0
  4  8  2  0  0  0  0
 13 14  1  0  0  0  0
  3  4  1  0  0  0  0
 12 13  2  0  0  0  0
  2 12  1  0  0  0  0
 11 13  1  0  0  0  0
  2  3  1  0  0  0  0
  2  9  2  0  0  0  0
 10 11  2  0  0  0  0
  9 10  1  0  0  0  0
  3 18  1  0  0  0  0
  3 19  1  0  0  0  0
  6 20  1  0  0  0  0
  7 21  1  0  0  0  0
  9 22  1  0  0  0  0
 10 23  1  0  0  0  0
 11 24  1  0  0  0  0
 12 25  1  0  0  0  0
 15 26  1  0  0  0  0
 16 27  1  0  0  0  0
 17 28  1  0  0  0  0
M  END
> <OPENEYE_ISO_SMILES>
c1cc(cc(c1)Cl)CC(=O)Nc2cccnc2

> <OPENEYE_INCHI>
InChI=1S/C13H11ClN2O/c14-11-4-1-3-10(7-11)8-13(17)16-12-5-2-6-15-9-12/h1-7,9H,8H2,(H,16,17)

> <OPENEYE_INCHIKEY>
JXVSAHMJMLDNGG-UHFFFAOYSA-N

> <FORMULA>
C13H11ClN2O

$$$$
