KU6
  -OEChem-05102419323D

 37 40  0     1  0  0  0  0  0999 V2000
    2.4530   -1.1330   -1.6020 N   0  0  0  0  0  0  0  0  0  0  0  0
    3.5050   -0.2200    0.0390 N   0  0  0  0  0  0  0  0  0  0  0  0
   -3.3730   -2.6720    1.0130 C   0  0  0  0  0  0  0  0  0  0  0  0
   -1.9620   -2.7860    0.4220 C   0  0  0  0  0  0  0  0  0  0  0  0
   -1.2140   -1.4820    0.7110 C   0  0  1  0  0  0  0  0  0  0  0  0
    0.0590   -1.4450   -0.0940 C   0  0  0  0  0  0  0  0  0  0  0  0
    2.3150   -0.7600   -0.3520 C   0  0  0  0  0  0  0  0  0  0  0  0
    3.8350    0.3360    1.3540 C   0  0  0  0  0  0  0  0  0  0  0  0
   -2.0800   -0.3060    0.3340 C   0  0  0  0  0  0  0  0  0  0  0  0
    1.1710   -0.8890    0.4270 N   0  0  0  0  0  0  0  0  0  0  0  0
    3.6420   -0.8630   -2.0090 N   0  0  0  0  0  0  0  0  0  0  0  0
    5.2970    0.7000    1.6200 C   0  0  0  0  0  0  0  0  0  0  0  0
   -3.6130    1.8990   -0.3520 C   0  0  0  0  0  0  0  0  0  0  0  0
    0.0840   -1.9160   -1.2120 O   0  0  0  0  0  0  0  0  0  0  0  0
   -4.2120    0.6680   -0.1780 C   0  0  0  0  0  0  0  0  0  0  0  0
    4.3260   -0.3060   -1.0490 C   0  0  0  0  0  0  0  0  0  0  0  0
    4.2580    1.8050    1.4140 C   0  0  0  0  0  0  0  0  0  0  0  0
   -1.4830    0.9310    0.1570 C   0  0  0  0  0  0  0  0  0  0  0  0
   -2.2460    2.0310   -0.1860 C   0  0  0  0  0  0  0  0  0  0  0  0
   -4.0710   -1.6390    0.3170 O   0  0  0  0  0  0  0  0  0  0  0  0
   -3.4460   -0.4420    0.1640 C   0  0  0  0  0  0  0  0  0  0  0  0
   -1.4900    3.5780   -0.4080 Cl  0  0  0  0  0  0  0  0  0  0  0  0
   -3.9000   -3.6180    0.8890 H   0  0  0  0  0  0  0  0  0  0  0  0
   -3.3090   -2.4230    2.0720 H   0  0  0  0  0  0  0  0  0  0  0  0
   -1.4360   -3.6210    0.8850 H   0  0  0  0  0  0  0  0  0  0  0  0
   -2.0260   -2.9430   -0.6540 H   0  0  0  0  0  0  0  0  0  0  0  0
   -0.9730   -1.4290    1.7720 H   0  0  0  0  0  0  0  0  0  0  0  0
    3.2530   -0.0550    2.1880 H   0  0  0  0  0  0  0  0  0  0  0  0
    1.1720   -0.5780    1.3460 H   0  0  0  0  0  0  0  0  0  0  0  0
    5.6770    0.5490    2.6300 H   0  0  0  0  0  0  0  0  0  0  0  0
    6.0130    0.5270    0.8170 H   0  0  0  0  0  0  0  0  0  0  0  0
   -4.2110    2.7580   -0.6180 H   0  0  0  0  0  0  0  0  0  0  0  0
   -5.2800    0.5660   -0.3070 H   0  0  0  0  0  0  0  0  0  0  0  0
    5.3520    0.0270   -1.1050 H   0  0  0  0  0  0  0  0  0  0  0  0
    4.2910    2.3580    0.4750 H   0  0  0  0  0  0  0  0  0  0  0  0
    3.9550    2.3800    2.2880 H   0  0  0  0  0  0  0  0  0  0  0  0
   -0.4160    1.0370    0.2860 H   0  0  0  0  0  0  0  0  0  0  0  0
 11 16  2  0  0  0  0
  1 11  1  0  0  0  0
  2 16  1  0  0  0  0
  1  7  2  0  0  0  0
  2  7  1  0  0  0  0
  2  8  1  0  0  0  0
  7 10  1  0  0  0  0
  8 17  1  0  0  0  0
  8 12  1  0  0  0  0
 12 17  1  0  0  0  0
  6 10  1  0  0  0  0
  6 14  2  0  0  0  0
 19 22  1  0  0  0  0
  5  6  1  0  0  0  0
 18 19  2  0  0  0  0
  9 18  1  0  0  0  0
 13 19  1  0  0  0  0
  5  9  1  0  0  0  0
  4  5  1  0  0  0  0
  9 21  2  0  0  0  0
 13 15  2  0  0  0  0
  3  4  1  0  0  0  0
 15 21  1  0  0  0  0
 20 21  1  0  0  0  0
  3 20  1  0  0  0  0
  3 23  1  0  0  0  0
  3 24  1  0  0  0  0
  4 25  1  0  0  0  0
  4 26  1  0  0  0  0
  5 27  1  0  0  0  0
  8 28  1  0  0  0  0
 10 29  1  0  0  0  0
 12 30  1  0  0  0  0
 12 31  1  0  0  0  0
 13 32  1  0  0  0  0
 15 33  1  0  0  0  0
 16 34  1  0  0  0  0
 17 35  1  0  0  0  0
 17 36  1  0  0  0  0
 18 37  1  0  0  0  0
M  END
> <OPENEYE_ISO_SMILES>
c1cc2c(cc1Cl)[C@@H](CCO2)C(=O)Nc3nncn3C4CC4

> <OPENEYE_INCHI>
InChI=1S/C15H15ClN4O2/c16-9-1-4-13-12(7-9)11(5-6-22-13)14(21)18-15-19-17-8-20(15)10-2-3-10/h1,4,7-8,10-11H,2-3,5-6H2,(H,18,19,21)/t11-/m1/s1

> <OPENEYE_INCHIKEY>
MMSFMHOFPDOWCH-LLVKDONJSA-N

> <FORMULA>
C15H15ClN4O2

$$$$
