KVX
  -OEChem-05102419323D

 34 36  0     1  0  0  0  0  0999 V2000
    1.6790    0.7150   -0.1590 N   0  0  0  0  0  0  0  0  0  0  0  0
    2.3680   -1.2440    1.0850 C   0  0  0  0  0  0  0  0  0  0  0  0
    2.6720   -0.1910    0.2320 C   0  0  0  0  0  0  0  0  0  0  0  0
    0.3840    0.3400   -0.1520 C   0  0  0  0  0  0  0  0  0  0  0  0
   -0.6940    1.3500   -0.4490 C   0  0  2  0  0  0  0  0  0  0  0  0
   -0.6850    2.4920    0.5950 C   0  0  0  0  0  0  0  0  0  0  0  0
   -4.1220    1.3510    0.8380 C   0  0  0  0  0  0  0  0  0  0  0  0
   -2.6250   -0.4490   -0.6370 C   0  0  0  0  0  0  0  0  0  0  0  0
   -4.6350   -2.2610   -0.7910 Cl  0  0  0  0  0  0  0  0  0  0  0  0
   -3.9320   -0.7530   -0.2950 C   0  0  0  0  0  0  0  0  0  0  0  0
   -4.6750    0.1500    0.4450 C   0  0  0  0  0  0  0  0  0  0  0  0
   -2.0710    0.7480   -0.2430 C   0  0  0  0  0  0  0  0  0  0  0  0
   -2.8100    1.6660    0.4930 C   0  0  0  0  0  0  0  0  0  0  0  0
   -2.0830    2.7860    0.7570 O   0  0  0  0  0  0  0  0  0  0  0  0
    0.0870   -0.8100    0.0940 O   0  0  0  0  0  0  0  0  0  0  0  0
    3.9780   -0.0490   -0.2280 C   0  0  0  0  0  0  0  0  0  0  0  0
    4.3520    1.0800   -1.1550 C   0  0  0  0  0  0  0  0  0  0  0  0
    5.7430    0.9940   -1.4720 O   0  0  0  0  0  0  0  0  0  0  0  0
    3.3020   -2.0960    1.4590 N   0  0  0  0  0  0  0  0  0  0  0  0
    4.5490   -1.9870    1.0440 C   0  0  0  0  0  0  0  0  0  0  0  0
    4.9260   -0.9700    0.1860 C   0  0  0  0  0  0  0  0  0  0  0  0
    1.9220    1.6140   -0.4310 H   0  0  0  0  0  0  0  0  0  0  0  0
    1.3590   -1.3630    1.4490 H   0  0  0  0  0  0  0  0  0  0  0  0
   -0.5880    1.7440   -1.4590 H   0  0  0  0  0  0  0  0  0  0  0  0
   -0.2500    2.1530    1.5350 H   0  0  0  0  0  0  0  0  0  0  0  0
   -0.1500    3.3610    0.2110 H   0  0  0  0  0  0  0  0  0  0  0  0
   -4.7090    2.0500    1.4160 H   0  0  0  0  0  0  0  0  0  0  0  0
   -2.0410   -1.1510   -1.2140 H   0  0  0  0  0  0  0  0  0  0  0  0
   -5.6930   -0.0870    0.7160 H   0  0  0  0  0  0  0  0  0  0  0  0
    3.7650    1.0080   -2.0700 H   0  0  0  0  0  0  0  0  0  0  0  0
    4.1490    2.0330   -0.6660 H   0  0  0  0  0  0  0  0  0  0  0  0
    6.0540    1.6910   -2.0660 H   0  0  0  0  0  0  0  0  0  0  0  0
    5.2840   -2.7050    1.3740 H   0  0  0  0  0  0  0  0  0  0  0  0
    5.9500   -0.8890   -0.1480 H   0  0  0  0  0  0  0  0  0  0  0  0
 19 20  2  0  0  0  0
  2 19  1  0  0  0  0
 20 21  1  0  0  0  0
  2  3  2  0  0  0  0
 16 21  2  0  0  0  0
  3 16  1  0  0  0  0
  1  3  1  0  0  0  0
 16 17  1  0  0  0  0
  9 10  1  0  0  0  0
  1  4  1  0  0  0  0
  4 15  2  0  0  0  0
  4  5  1  0  0  0  0
 17 18  1  0  0  0  0
  8 10  2  0  0  0  0
  8 12  1  0  0  0  0
 10 11  1  0  0  0  0
  5 12  1  0  0  0  0
 12 13  2  0  0  0  0
  7 11  2  0  0  0  0
  5  6  1  0  0  0  0
  7 13  1  0  0  0  0
 13 14  1  0  0  0  0
  6 14  1  0  0  0  0
  1 22  1  0  0  0  0
  2 23  1  0  0  0  0
  5 24  1  0  0  0  0
  6 25  1  0  0  0  0
  6 26  1  0  0  0  0
  7 27  1  0  0  0  0
  8 28  1  0  0  0  0
 11 29  1  0  0  0  0
 17 30  1  0  0  0  0
 17 31  1  0  0  0  0
 18 32  1  0  0  0  0
 20 33  1  0  0  0  0
 21 34  1  0  0  0  0
M  END
> <OPENEYE_ISO_SMILES>
c1cc2c(cc1Cl)[C@@H](CO2)C(=O)Nc3cnccc3CO

> <OPENEYE_INCHI>
InChI=1S/C15H13ClN2O3/c16-10-1-2-14-11(5-10)12(8-21-14)15(20)18-13-6-17-4-3-9(13)7-19/h1-6,12,19H,7-8H2,(H,18,20)/t12-/m1/s1

> <OPENEYE_INCHIKEY>
BWTWLKMAKBVNDU-GFCCVEGCSA-N

> <FORMULA>
C15H13ClN2O3

$$$$
