KW9
  -OEChem-05102419323D

 43 45  0     0  0  0  0  0  0999 V2000
    3.6520    2.1300    0.6540 N   0  0  0  0  0  0  0  0  0  0  0  0
   -6.3440   -0.5130    1.5120 C   0  0  0  0  0  0  0  0  0  0  0  0
   -5.0670   -0.9640    1.2330 C   0  0  0  0  0  0  0  0  0  0  0  0
   -4.3830   -0.4710    0.1330 C   0  0  0  0  0  0  0  0  0  0  0  0
   -2.5730   -1.8880    0.7440 C   0  0  0  0  0  0  0  0  0  0  0  0
   -1.1650   -2.2610    0.2750 C   0  0  0  0  0  0  0  0  0  0  0  0
    1.9220   -0.0400    0.2440 C   0  0  0  0  0  0  0  0  0  0  0  0
    4.1990    0.9430    0.2150 C   0  0  0  0  0  0  0  0  0  0  0  0
    6.0880   -0.3710   -0.4550 C   0  0  0  0  0  0  0  0  0  0  0  0
    3.9150   -1.3760   -0.4480 C   0  0  0  0  0  0  0  0  0  0  0  0
    7.4160   -0.4810   -0.6790 F   0  0  0  0  0  0  0  0  0  0  0  0
    5.5650    0.8290   -0.0160 C   0  0  0  0  0  0  0  0  0  0  0  0
    5.2600   -1.4680   -0.6690 C   0  0  0  0  0  0  0  0  0  0  0  0
    3.3660   -0.1710   -0.0030 C   0  0  0  0  0  0  0  0  0  0  0  0
    2.3330    2.2460    0.8850 C   0  0  0  0  0  0  0  0  0  0  0  0
    1.8900    3.3120    1.2720 O   0  0  0  0  0  0  0  0  0  0  0  0
    1.4460    1.1600    0.6890 C   0  0  0  0  0  0  0  0  0  0  0  0
    1.0080   -1.1880    0.0270 C   0  0  0  0  0  0  0  0  0  0  0  0
    1.4260   -2.2120   -0.4740 O   0  0  0  0  0  0  0  0  0  0  0  0
   -0.2880   -1.0940    0.3860 N   0  0  0  0  0  0  0  0  0  0  0  0
   -3.1270   -0.9140   -0.1430 O   0  0  0  0  0  0  0  0  0  0  0  0
   -4.9850    0.4770   -0.6890 C   0  0  0  0  0  0  0  0  0  0  0  0
   -4.3180    0.9640   -1.7700 O   0  0  0  0  0  0  0  0  0  0  0  0
   -4.9970    1.9350   -2.5680 C   0  0  0  0  0  0  0  0  0  0  0  0
   -6.9410    0.4290    0.6950 C   0  0  0  0  0  0  0  0  0  0  0  0
   -6.2650    0.9250   -0.4040 C   0  0  0  0  0  0  0  0  0  0  0  0
    4.2310    2.8950    0.8030 H   0  0  0  0  0  0  0  0  0  0  0  0
   -6.8780   -0.9010    2.3670 H   0  0  0  0  0  0  0  0  0  0  0  0
   -4.6020   -1.7000    1.8720 H   0  0  0  0  0  0  0  0  0  0  0  0
   -3.2040   -2.7770    0.7460 H   0  0  0  0  0  0  0  0  0  0  0  0
   -2.5240   -1.4760    1.7510 H   0  0  0  0  0  0  0  0  0  0  0  0
   -0.7770   -3.0680    0.8980 H   0  0  0  0  0  0  0  0  0  0  0  0
   -1.2030   -2.5910   -0.7630 H   0  0  0  0  0  0  0  0  0  0  0  0
    3.2790   -2.2320   -0.6170 H   0  0  0  0  0  0  0  0  0  0  0  0
    6.2150    1.6760    0.1470 H   0  0  0  0  0  0  0  0  0  0  0  0
    5.6840   -2.4000   -1.0130 H   0  0  0  0  0  0  0  0  0  0  0  0
    0.3910    1.2830    0.8830 H   0  0  0  0  0  0  0  0  0  0  0  0
   -0.6400   -0.2520    0.7180 H   0  0  0  0  0  0  0  0  0  0  0  0
   -4.3550    2.2380   -3.3950 H   0  0  0  0  0  0  0  0  0  0  0  0
   -5.9170    1.5020   -2.9620 H   0  0  0  0  0  0  0  0  0  0  0  0
   -5.2370    2.8040   -1.9570 H   0  0  0  0  0  0  0  0  0  0  0  0
   -7.9390    0.7790    0.9160 H   0  0  0  0  0  0  0  0  0  0  0  0
   -6.7340    1.6610   -1.0400 H   0  0  0  0  0  0  0  0  0  0  0  0
 15 16  2  0  0  0  0
  1 15  1  0  0  0  0
 15 17  1  0  0  0  0
  1  8  1  0  0  0  0
  7 17  2  0  0  0  0
  8 12  2  0  0  0  0
  8 14  1  0  0  0  0
  9 12  1  0  0  0  0
  7 14  1  0  0  0  0
  7 18  1  0  0  0  0
 10 14  2  0  0  0  0
 18 19  2  0  0  0  0
 18 20  1  0  0  0  0
  9 11  1  0  0  0  0
  9 13  2  0  0  0  0
  6 20  1  0  0  0  0
 10 13  1  0  0  0  0
  2  3  2  0  0  0  0
  2 25  1  0  0  0  0
  3  4  1  0  0  0  0
  5  6  1  0  0  0  0
 25 26  2  0  0  0  0
  5 21  1  0  0  0  0
  4 21  1  0  0  0  0
  4 22  2  0  0  0  0
 22 26  1  0  0  0  0
 22 23  1  0  0  0  0
 23 24  1  0  0  0  0
  1 27  1  0  0  0  0
  2 28  1  0  0  0  0
  3 29  1  0  0  0  0
  5 30  1  0  0  0  0
  5 31  1  0  0  0  0
  6 32  1  0  0  0  0
  6 33  1  0  0  0  0
 10 34  1  0  0  0  0
 12 35  1  0  0  0  0
 13 36  1  0  0  0  0
 17 37  1  0  0  0  0
 20 38  1  0  0  0  0
 24 39  1  0  0  0  0
 24 40  1  0  0  0  0
 24 41  1  0  0  0  0
 25 42  1  0  0  0  0
 26 43  1  0  0  0  0
M  END
> <OPENEYE_ISO_SMILES>
COc1ccccc1OCCNC(=O)c2cc(=O)[nH]c3c2ccc(c3)F

> <OPENEYE_INCHI>
InChI=1S/C19H17FN2O4/c1-25-16-4-2-3-5-17(16)26-9-8-21-19(24)14-11-18(23)22-15-10-12(20)6-7-13(14)15/h2-7,10-11H,8-9H2,1H3,(H,21,24)(H,22,23)

> <OPENEYE_INCHIKEY>
KKIJAAYVRSUCNW-UHFFFAOYSA-N

> <FORMULA>
C19H17FN2O4

$$$$
