KY0
  -OEChem-05102419323D

 35 37  0     0  0  0  0  0  0999 V2000
   -1.2720   -0.0370    0.2650 N   0  0  0  0  0  0  0  0  0  0  0  0
   -3.4030    0.5210   -0.7370 C   0  0  0  0  0  0  0  0  0  0  0  0
   -2.6170   -0.3370    0.0200 C   0  0  0  0  0  0  0  0  0  0  0  0
   -0.8470    1.2410    0.2150 C   0  0  0  0  0  0  0  0  0  0  0  0
    0.5960    1.5660    0.5060 C   0  0  0  0  0  0  0  0  0  0  0  0
    0.9500    1.9950    1.9310 C   0  0  0  0  0  0  0  0  0  0  0  0
    1.6110    0.7460   -0.2470 C   0  0  0  0  0  0  0  0  0  0  0  0
    3.4740   -0.7600   -1.6300 C   0  0  0  0  0  0  0  0  0  0  0  0
    2.6100    0.0820    0.4400 C   0  0  0  0  0  0  0  0  0  0  0  0
    4.7960   -1.5060    0.6120 Cl  0  0  0  0  0  0  0  0  0  0  0  0
    3.5420   -0.6710   -0.2510 C   0  0  0  0  0  0  0  0  0  0  0  0
    2.4720   -0.1000   -2.3160 C   0  0  0  0  0  0  0  0  0  0  0  0
    1.5410    0.6530   -1.6250 C   0  0  0  0  0  0  0  0  0  0  0  0
    0.9450    3.0260    0.8000 C   0  0  0  0  0  0  0  0  0  0  0  0
   -1.6250    2.1280   -0.0630 O   0  0  0  0  0  0  0  0  0  0  0  0
   -3.1870   -1.5010    0.5310 C   0  0  0  0  0  0  0  0  0  0  0  0
   -2.3710   -2.4600    1.3590 C   0  0  0  0  0  0  0  0  0  0  0  0
   -4.6720    0.2450   -0.9670 N   0  0  0  0  0  0  0  0  0  0  0  0
   -5.2420   -0.8460   -0.4930 C   0  0  0  0  0  0  0  0  0  0  0  0
   -4.5210   -1.7540    0.2610 C   0  0  0  0  0  0  0  0  0  0  0  0
   -0.6470   -0.7490    0.4750 H   0  0  0  0  0  0  0  0  0  0  0  0
   -2.9730    1.4270   -1.1380 H   0  0  0  0  0  0  0  0  0  0  0  0
    0.1400    2.0420    2.6580 H   0  0  0  0  0  0  0  0  0  0  0  0
    1.9180    1.6840    2.3240 H   0  0  0  0  0  0  0  0  0  0  0  0
    4.2010   -1.3480   -2.1700 H   0  0  0  0  0  0  0  0  0  0  0  0
    2.6630    0.1510    1.5170 H   0  0  0  0  0  0  0  0  0  0  0  0
    2.4160   -0.1730   -3.3920 H   0  0  0  0  0  0  0  0  0  0  0  0
    0.7580    1.1690   -2.1610 H   0  0  0  0  0  0  0  0  0  0  0  0
    1.9100    3.3940    0.4490 H   0  0  0  0  0  0  0  0  0  0  0  0
    0.1310    3.7520    0.7830 H   0  0  0  0  0  0  0  0  0  0  0  0
   -2.4430   -2.1850    2.4110 H   0  0  0  0  0  0  0  0  0  0  0  0
   -2.7510   -3.4730    1.2210 H   0  0  0  0  0  0  0  0  0  0  0  0
   -1.3280   -2.4170    1.0430 H   0  0  0  0  0  0  0  0  0  0  0  0
   -6.2840   -1.0360   -0.7030 H   0  0  0  0  0  0  0  0  0  0  0  0
   -4.9970   -2.6440    0.6450 H   0  0  0  0  0  0  0  0  0  0  0  0
 18 19  2  0  0  0  0
  2 18  1  0  0  0  0
 19 20  1  0  0  0  0
  2  3  2  0  0  0  0
 16 20  2  0  0  0  0
  3 16  1  0  0  0  0
  1  3  1  0  0  0  0
 16 17  1  0  0  0  0
  1  4  1  0  0  0  0
 10 11  1  0  0  0  0
  4 15  2  0  0  0  0
  4  5  1  0  0  0  0
  9 11  2  0  0  0  0
  7  9  1  0  0  0  0
  8 11  1  0  0  0  0
  5  7  1  0  0  0  0
  5  6  1  0  0  0  0
  5 14  1  0  0  0  0
  8 12  2  0  0  0  0
  7 13  2  0  0  0  0
  6 14  1  0  0  0  0
 12 13  1  0  0  0  0
  1 21  1  0  0  0  0
  2 22  1  0  0  0  0
  6 23  1  0  0  0  0
  6 24  1  0  0  0  0
  8 25  1  0  0  0  0
  9 26  1  0  0  0  0
 12 27  1  0  0  0  0
 13 28  1  0  0  0  0
 14 29  1  0  0  0  0
 14 30  1  0  0  0  0
 17 31  1  0  0  0  0
 17 32  1  0  0  0  0
 17 33  1  0  0  0  0
 19 34  1  0  0  0  0
 20 35  1  0  0  0  0
M  END
> <OPENEYE_ISO_SMILES>
Cc1ccncc1NC(=O)C2(CC2)c3cccc(c3)Cl

> <OPENEYE_INCHI>
InChI=1S/C16H15ClN2O/c1-11-5-8-18-10-14(11)19-15(20)16(6-7-16)12-3-2-4-13(17)9-12/h2-5,8-10H,6-7H2,1H3,(H,19,20)

> <OPENEYE_INCHIKEY>
AIYYCYBWGZIFKY-UHFFFAOYSA-N

> <FORMULA>
C16H15ClN2O

$$$$
