KZC
  -OEChem-05102419323D

 40 42  0     0  0  0  0  0  0999 V2000
   -3.8580   -0.9590    0.0190 N   0  0  0  0  0  0  0  0  0  0  0  0
   -5.2610    1.0050   -0.0260 C   0  0  0  0  0  0  0  0  0  0  0  0
   -6.5170    1.5760   -0.0720 C   0  0  0  0  0  0  0  0  0  0  0  0
   -7.6420    0.7720   -0.1150 C   0  0  0  0  0  0  0  0  0  0  0  0
   -7.5130   -0.6040   -0.1120 C   0  0  0  0  0  0  0  0  0  0  0  0
   -6.2590   -1.1820   -0.0670 C   0  0  0  0  0  0  0  0  0  0  0  0
    2.1090    1.5160    0.1030 C   0  0  0  0  0  0  0  0  0  0  0  0
    5.9490   -0.1780   -0.1780 C   0  0  0  0  0  0  0  0  0  0  0  0
    4.9680   -2.3710   -0.1090 C   0  0  0  0  0  0  0  0  0  0  0  0
    3.5540   -0.4440   -0.0050 C   0  0  0  0  0  0  0  0  0  0  0  0
   -0.2200   -0.1400    0.1280 N   0  0  0  0  0  0  0  0  0  0  0  0
    4.5340    1.7620   -0.0500 N   0  0  0  0  0  0  0  0  0  0  0  0
   -1.4130   -0.9890    0.0940 C   0  0  0  0  0  0  0  0  0  0  0  0
    3.3190    2.3320    0.0300 C   0  0  0  0  0  0  0  0  0  0  0  0
    3.2260    3.5470    0.0420 O   0  0  0  0  0  0  0  0  0  0  0  0
   -2.6640   -0.1090    0.0530 C   0  0  0  0  0  0  0  0  0  0  0  0
    3.7150   -1.8330   -0.0220 C   0  0  0  0  0  0  0  0  0  0  0  0
    2.2140    0.1550    0.0890 C   0  0  0  0  0  0  0  0  0  0  0  0
    4.6820    0.3920   -0.0780 C   0  0  0  0  0  0  0  0  0  0  0  0
    6.0830   -1.5490   -0.2050 C   0  0  0  0  0  0  0  0  0  0  0  0
    1.0050   -0.7000    0.1680 C   0  0  0  0  0  0  0  0  0  0  0  0
    1.1190   -1.9050    0.2680 O   0  0  0  0  0  0  0  0  0  0  0  0
   -5.1270   -0.3780   -0.0280 C   0  0  0  0  0  0  0  0  0  0  0  0
   -3.7660   -1.9240    0.0240 H   0  0  0  0  0  0  0  0  0  0  0  0
   -4.3830    1.6330    0.0080 H   0  0  0  0  0  0  0  0  0  0  0  0
   -6.6220    2.6510   -0.0740 H   0  0  0  0  0  0  0  0  0  0  0  0
   -8.6240    1.2210   -0.1510 H   0  0  0  0  0  0  0  0  0  0  0  0
   -8.3940   -1.2290   -0.1410 H   0  0  0  0  0  0  0  0  0  0  0  0
   -6.1590   -2.2570   -0.0640 H   0  0  0  0  0  0  0  0  0  0  0  0
    1.1390    1.9870    0.1710 H   0  0  0  0  0  0  0  0  0  0  0  0
    6.8220    0.4530   -0.2540 H   0  0  0  0  0  0  0  0  0  0  0  0
    5.0900   -3.4440   -0.1220 H   0  0  0  0  0  0  0  0  0  0  0  0
   -0.3120    0.8260    0.1230 H   0  0  0  0  0  0  0  0  0  0  0  0
    5.3210    2.3270   -0.1020 H   0  0  0  0  0  0  0  0  0  0  0  0
   -1.3840   -1.6210   -0.7940 H   0  0  0  0  0  0  0  0  0  0  0  0
   -1.4390   -1.6160    0.9850 H   0  0  0  0  0  0  0  0  0  0  0  0
   -2.6390    0.5170   -0.8390 H   0  0  0  0  0  0  0  0  0  0  0  0
   -2.6940    0.5230    0.9410 H   0  0  0  0  0  0  0  0  0  0  0  0
    2.8510   -2.4790    0.0340 H   0  0  0  0  0  0  0  0  0  0  0  0
    7.0650   -1.9890   -0.3010 H   0  0  0  0  0  0  0  0  0  0  0  0
 14 15  2  0  0  0  0
 12 14  1  0  0  0  0
  7 14  1  0  0  0  0
 12 19  1  0  0  0  0
  7 18  2  0  0  0  0
  8 19  2  0  0  0  0
 10 19  1  0  0  0  0
 10 18  1  0  0  0  0
 18 21  1  0  0  0  0
  8 20  1  0  0  0  0
 10 17  2  0  0  0  0
 21 22  2  0  0  0  0
 11 21  1  0  0  0  0
  9 20  2  0  0  0  0
 11 13  1  0  0  0  0
  9 17  1  0  0  0  0
  5  6  2  0  0  0  0
  4  5  1  0  0  0  0
  6 23  1  0  0  0  0
 13 16  1  0  0  0  0
  1 16  1  0  0  0  0
  3  4  2  0  0  0  0
  1 23  1  0  0  0  0
  2 23  2  0  0  0  0
  2  3  1  0  0  0  0
  1 24  1  0  0  0  0
  2 25  1  0  0  0  0
  3 26  1  0  0  0  0
  4 27  1  0  0  0  0
  5 28  1  0  0  0  0
  6 29  1  0  0  0  0
  7 30  1  0  0  0  0
  8 31  1  0  0  0  0
  9 32  1  0  0  0  0
 11 33  1  0  0  0  0
 12 34  1  0  0  0  0
 13 35  1  0  0  0  0
 13 36  1  0  0  0  0
 16 37  1  0  0  0  0
 16 38  1  0  0  0  0
 17 39  1  0  0  0  0
 20 40  1  0  0  0  0
M  END
> <OPENEYE_ISO_SMILES>
c1ccc(cc1)NCCNC(=O)c2cc(=O)[nH]c3c2cccc3

> <OPENEYE_INCHI>
InChI=1S/C18H17N3O2/c22-17-12-15(14-8-4-5-9-16(14)21-17)18(23)20-11-10-19-13-6-2-1-3-7-13/h1-9,12,19H,10-11H2,(H,20,23)(H,21,22)

> <OPENEYE_INCHIKEY>
FTMBCXQGAOJUAX-UHFFFAOYSA-N

> <FORMULA>
C18H17N3O2

$$$$
