KZX
  -OEChem-05102419323D

 31 32  0     0  0  0  0  0  0999 V2000
    1.4640    0.9010    0.5920 N   0  0  0  0  0  0  0  0  0  0  0  0
    2.4430   -1.2520    0.0810 C   0  0  0  0  0  0  0  0  0  0  0  0
    2.5540    0.1290    0.1770 C   0  0  0  0  0  0  0  0  0  0  0  0
    0.2090    0.4400    0.4270 C   0  0  0  0  0  0  0  0  0  0  0  0
   -0.9580    1.2110    0.9870 C   0  0  0  0  0  0  0  0  0  0  0  0
   -2.2400    0.4860    0.6670 C   0  0  0  0  0  0  0  0  0  0  0  0
   -3.9140   -1.1230    1.2540 C   0  0  0  0  0  0  0  0  0  0  0  0
   -2.9140    0.7600   -0.5080 C   0  0  0  0  0  0  0  0  0  0  0  0
   -2.7380   -0.4570    1.5470 C   0  0  0  0  0  0  0  0  0  0  0  0
   -4.7510    0.3600   -1.9500 F   0  0  0  0  0  0  0  0  0  0  0  0
    3.4700   -1.9830   -0.3050 N   0  0  0  0  0  0  0  0  0  0  0  0
   -4.0910    0.0930   -0.8020 C   0  0  0  0  0  0  0  0  0  0  0  0
    3.7670    0.7340   -0.1460 C   0  0  0  0  0  0  0  0  0  0  0  0
   -4.5930   -0.8470    0.0830 C   0  0  0  0  0  0  0  0  0  0  0  0
    3.9320    2.2290   -0.0550 C   0  0  0  0  0  0  0  0  0  0  0  0
    4.8170   -0.0730   -0.5520 C   0  0  0  0  0  0  0  0  0  0  0  0
    0.0180   -0.5970   -0.1730 O   0  0  0  0  0  0  0  0  0  0  0  0
    4.6320   -1.4420   -0.6130 C   0  0  0  0  0  0  0  0  0  0  0  0
    1.6120    1.7680    1.0030 H   0  0  0  0  0  0  0  0  0  0  0  0
    1.5080   -1.7320    0.3290 H   0  0  0  0  0  0  0  0  0  0  0  0
   -0.8500    1.2990    2.0680 H   0  0  0  0  0  0  0  0  0  0  0  0
   -0.9830    2.2060    0.5430 H   0  0  0  0  0  0  0  0  0  0  0  0
   -4.3020   -1.8600    1.9420 H   0  0  0  0  0  0  0  0  0  0  0  0
   -2.5220    1.4930   -1.1970 H   0  0  0  0  0  0  0  0  0  0  0  0
   -2.2090   -0.6730    2.4630 H   0  0  0  0  0  0  0  0  0  0  0  0
   -5.5110   -1.3670   -0.1450 H   0  0  0  0  0  0  0  0  0  0  0  0
    4.2790    2.4960    0.9440 H   0  0  0  0  0  0  0  0  0  0  0  0
    4.6630    2.5590   -0.7930 H   0  0  0  0  0  0  0  0  0  0  0  0
    2.9750    2.7130   -0.2490 H   0  0  0  0  0  0  0  0  0  0  0  0
    5.7710    0.3610   -0.8100 H   0  0  0  0  0  0  0  0  0  0  0  0
    5.4490   -2.0760   -0.9250 H   0  0  0  0  0  0  0  0  0  0  0  0
 11 18  2  0  0  0  0
  2 11  1  0  0  0  0
 16 18  1  0  0  0  0
  2  3  2  0  0  0  0
 13 16  2  0  0  0  0
  3 13  1  0  0  0  0
  1  3  1  0  0  0  0
 13 15  1  0  0  0  0
  4 17  2  0  0  0  0
  1  4  1  0  0  0  0
 10 12  1  0  0  0  0
  4  5  1  0  0  0  0
  8 12  2  0  0  0  0
  6  8  1  0  0  0  0
 12 14  1  0  0  0  0
  5  6  1  0  0  0  0
  6  9  2  0  0  0  0
  7 14  2  0  0  0  0
  7  9  1  0  0  0  0
  1 19  1  0  0  0  0
  2 20  1  0  0  0  0
  5 21  1  0  0  0  0
  5 22  1  0  0  0  0
  7 23  1  0  0  0  0
  8 24  1  0  0  0  0
  9 25  1  0  0  0  0
 14 26  1  0  0  0  0
 15 27  1  0  0  0  0
 15 28  1  0  0  0  0
 15 29  1  0  0  0  0
 16 30  1  0  0  0  0
 18 31  1  0  0  0  0
M  END
> <OPENEYE_ISO_SMILES>
Cc1ccncc1NC(=O)Cc2cccc(c2)F

> <OPENEYE_INCHI>
InChI=1S/C14H13FN2O/c1-10-5-6-16-9-13(10)17-14(18)8-11-3-2-4-12(15)7-11/h2-7,9H,8H2,1H3,(H,17,18)

> <OPENEYE_INCHIKEY>
MLLQAKCWQMHQOK-UHFFFAOYSA-N

> <FORMULA>
C14H13FN2O

$$$$
