L3I
  -OEChem-05102419323D

 37 38  0     0  0  0  0  0  0999 V2000
    1.8850    0.7820    0.3050 N   0  0  0  0  0  0  0  0  0  0  0  0
    2.7700   -1.4680    0.2000 C   0  0  0  0  0  0  0  0  0  0  0  0
    2.9730   -0.0940    0.2240 C   0  0  0  0  0  0  0  0  0  0  0  0
    0.6700    0.3910   -0.1300 C   0  0  0  0  0  0  0  0  0  0  0  0
   -0.5260    1.2840    0.0730 C   0  0  0  0  0  0  0  0  0  0  0  0
   -0.3470    2.5700   -0.7370 C   0  0  0  0  0  0  0  0  0  0  0  0
   -1.7700    0.5700   -0.3880 C   0  0  0  0  0  0  0  0  0  0  0  0
   -4.0530   -0.7410   -1.2370 C   0  0  0  0  0  0  0  0  0  0  0  0
   -2.7570    0.2410    0.5230 C   0  0  0  0  0  0  0  0  0  0  0  0
   -5.1380   -0.8270    1.2430 Cl  0  0  0  0  0  0  0  0  0  0  0  0
   -3.8990   -0.4150    0.0990 C   0  0  0  0  0  0  0  0  0  0  0  0
   -3.0690   -0.4070   -2.1480 C   0  0  0  0  0  0  0  0  0  0  0  0
   -1.9280    0.2480   -1.7240 C   0  0  0  0  0  0  0  0  0  0  0  0
   -0.6580    1.6310    1.5570 C   0  0  0  0  0  0  0  0  0  0  0  0
    0.5410   -0.6800   -0.6850 O   0  0  0  0  0  0  0  0  0  0  0  0
    4.2740    0.3980    0.1660 C   0  0  0  0  0  0  0  0  0  0  0  0
    4.5400    1.8810    0.1900 C   0  0  0  0  0  0  0  0  0  0  0  0
    3.7930   -2.2970    0.1280 N   0  0  0  0  0  0  0  0  0  0  0  0
    5.0370   -1.8630    0.0770 C   0  0  0  0  0  0  0  0  0  0  0  0
    5.3180   -0.5090    0.0860 C   0  0  0  0  0  0  0  0  0  0  0  0
    2.0030    1.6700    0.6770 H   0  0  0  0  0  0  0  0  0  0  0  0
    1.7650   -1.8610    0.2440 H   0  0  0  0  0  0  0  0  0  0  0  0
   -0.2530    2.3230   -1.7940 H   0  0  0  0  0  0  0  0  0  0  0  0
   -1.2120    3.2160   -0.5900 H   0  0  0  0  0  0  0  0  0  0  0  0
    0.5530    3.0860   -0.4030 H   0  0  0  0  0  0  0  0  0  0  0  0
   -4.9450   -1.2520   -1.5680 H   0  0  0  0  0  0  0  0  0  0  0  0
   -2.6350    0.4950    1.5650 H   0  0  0  0  0  0  0  0  0  0  0  0
   -3.1920   -0.6570   -3.1910 H   0  0  0  0  0  0  0  0  0  0  0  0
   -1.1590    0.5090   -2.4360 H   0  0  0  0  0  0  0  0  0  0  0  0
    0.2420    2.1480    1.8910 H   0  0  0  0  0  0  0  0  0  0  0  0
   -1.5240    2.2770    1.7040 H   0  0  0  0  0  0  0  0  0  0  0  0
   -0.7860    0.7150    2.1340 H   0  0  0  0  0  0  0  0  0  0  0  0
    4.6600    2.2120    1.2220 H   0  0  0  0  0  0  0  0  0  0  0  0
    5.4510    2.0960   -0.3680 H   0  0  0  0  0  0  0  0  0  0  0  0
    3.7020    2.4080   -0.2660 H   0  0  0  0  0  0  0  0  0  0  0  0
    5.8470   -2.5740    0.0190 H   0  0  0  0  0  0  0  0  0  0  0  0
    6.3400   -0.1630    0.0440 H   0  0  0  0  0  0  0  0  0  0  0  0
 18 19  2  0  0  0  0
  2 18  1  0  0  0  0
 19 20  1  0  0  0  0
  2  3  2  0  0  0  0
 16 20  2  0  0  0  0
  3 16  1  0  0  0  0
  1  3  1  0  0  0  0
 16 17  1  0  0  0  0
 10 11  1  0  0  0  0
  1  4  1  0  0  0  0
  4 15  2  0  0  0  0
  4  5  1  0  0  0  0
  9 11  2  0  0  0  0
  8 11  1  0  0  0  0
  7  9  1  0  0  0  0
  8 12  2  0  0  0  0
  5  7  1  0  0  0  0
  5 14  1  0  0  0  0
  5  6  1  0  0  0  0
  7 13  2  0  0  0  0
 12 13  1  0  0  0  0
  1 21  1  0  0  0  0
  2 22  1  0  0  0  0
  6 23  1  0  0  0  0
  6 24  1  0  0  0  0
  6 25  1  0  0  0  0
  8 26  1  0  0  0  0
  9 27  1  0  0  0  0
 12 28  1  0  0  0  0
 13 29  1  0  0  0  0
 14 30  1  0  0  0  0
 14 31  1  0  0  0  0
 14 32  1  0  0  0  0
 17 33  1  0  0  0  0
 17 34  1  0  0  0  0
 17 35  1  0  0  0  0
 19 36  1  0  0  0  0
 20 37  1  0  0  0  0
M  END
> <OPENEYE_ISO_SMILES>
Cc1ccncc1NC(=O)C(C)(C)c2cccc(c2)Cl

> <OPENEYE_INCHI>
InChI=1S/C16H17ClN2O/c1-11-7-8-18-10-14(11)19-15(20)16(2,3)12-5-4-6-13(17)9-12/h4-10H,1-3H3,(H,19,20)

> <OPENEYE_INCHIKEY>
QOWQEKIGADCHLL-UHFFFAOYSA-N

> <FORMULA>
C16H17ClN2O

$$$$
