L6D
  -OEChem-05102419323D

 32 34  0     0  0  0  0  0  0999 V2000
   -2.2120    0.0330   -0.0670 N   0  0  0  0  0  0  0  0  0  0  0  0
    2.5090    1.0540    0.1410 C   0  0  0  0  0  0  0  0  0  0  0  0
    1.1830    1.4540    0.7360 C   0  0  0  0  0  0  0  0  0  0  0  0
    0.0870    0.6220    0.1220 C   0  0  0  0  0  0  0  0  0  0  0  0
   -2.0580   -0.9380   -1.0080 C   0  0  0  0  0  0  0  0  0  0  0  0
   -4.1880   -0.8490   -0.5860 C   0  0  0  0  0  0  0  0  0  0  0  0
   -6.3050   -0.2330    0.3420 C   0  0  0  0  0  0  0  0  0  0  0  0
   -3.5590    0.1110    0.2250 C   0  0  0  0  0  0  0  0  0  0  0  0
    0.3550   -0.2130   -0.7160 O   0  0  0  0  0  0  0  0  0  0  0  0
    2.9780    1.6910   -0.9920 C   0  0  0  0  0  0  0  0  0  0  0  0
    4.1950    1.3250   -1.5380 C   0  0  0  0  0  0  0  0  0  0  0  0
    4.9430    0.3230   -0.9500 C   0  0  0  0  0  0  0  0  0  0  0  0
    3.2590    0.0550    0.7340 C   0  0  0  0  0  0  0  0  0  0  0  0
    4.4740   -0.3150    0.1850 C   0  0  0  0  0  0  0  0  0  0  0  0
    5.4170   -1.5690    0.9280 Cl  0  0  0  0  0  0  0  0  0  0  0  0
   -1.1930    0.8060    0.5040 N   0  0  0  0  0  0  0  0  0  0  0  0
   -3.2120   -1.4560   -1.3090 N   0  0  0  0  0  0  0  0  0  0  0  0
   -4.3180    0.8900    1.0880 C   0  0  0  0  0  0  0  0  0  0  0  0
   -5.6850    0.7150    1.1430 C   0  0  0  0  0  0  0  0  0  0  0  0
   -5.5740   -1.0090   -0.5130 C   0  0  0  0  0  0  0  0  0  0  0  0
    1.2040    1.2890    1.8130 H   0  0  0  0  0  0  0  0  0  0  0  0
    0.9970    2.5080    0.5330 H   0  0  0  0  0  0  0  0  0  0  0  0
   -1.1140   -1.2340   -1.4410 H   0  0  0  0  0  0  0  0  0  0  0  0
   -7.3760   -0.3590    0.3950 H   0  0  0  0  0  0  0  0  0  0  0  0
    2.3930    2.4740   -1.4520 H   0  0  0  0  0  0  0  0  0  0  0  0
    4.5600    1.8230   -2.4240 H   0  0  0  0  0  0  0  0  0  0  0  0
    5.8930    0.0380   -1.3770 H   0  0  0  0  0  0  0  0  0  0  0  0
    2.8930   -0.4420    1.6190 H   0  0  0  0  0  0  0  0  0  0  0  0
   -1.4080    1.4740    1.1740 H   0  0  0  0  0  0  0  0  0  0  0  0
   -3.8400    1.6290    1.7140 H   0  0  0  0  0  0  0  0  0  0  0  0
   -6.2760    1.3200    1.8140 H   0  0  0  0  0  0  0  0  0  0  0  0
   -6.0670   -1.7440   -1.1320 H   0  0  0  0  0  0  0  0  0  0  0  0
  5 17  2  0  0  0  0
  6 17  1  0  0  0  0
  6 20  2  0  0  0  0
  7 20  1  0  0  0  0
  1  5  1  0  0  0  0
  6  8  1  0  0  0  0
  7 19  2  0  0  0  0
  1  8  1  0  0  0  0
  1 16  1  0  0  0  0
  8 18  2  0  0  0  0
 18 19  1  0  0  0  0
  4 16  1  0  0  0  0
 14 15  1  0  0  0  0
  4  9  2  0  0  0  0
  3  4  1  0  0  0  0
 13 14  2  0  0  0  0
  2 13  1  0  0  0  0
 12 14  1  0  0  0  0
  2  3  1  0  0  0  0
  2 10  2  0  0  0  0
 11 12  2  0  0  0  0
 10 11  1  0  0  0  0
  3 21  1  0  0  0  0
  3 22  1  0  0  0  0
  5 23  1  0  0  0  0
  7 24  1  0  0  0  0
 10 25  1  0  0  0  0
 11 26  1  0  0  0  0
 12 27  1  0  0  0  0
 13 28  1  0  0  0  0
 16 29  1  0  0  0  0
 18 30  1  0  0  0  0
 19 31  1  0  0  0  0
 20 32  1  0  0  0  0
M  END
> <OPENEYE_ISO_SMILES>
c1ccc2c(c1)ncn2NC(=O)Cc3cccc(c3)Cl

> <OPENEYE_INCHI>
InChI=1S/C15H12ClN3O/c16-12-5-3-4-11(8-12)9-15(20)18-19-10-17-13-6-1-2-7-14(13)19/h1-8,10H,9H2,(H,18,20)

> <OPENEYE_INCHIKEY>
YHLCUCKEOZVUDL-UHFFFAOYSA-N

> <FORMULA>
C15H12ClN3O

$$$$
