LBC
  -OEChem-05102419323D

 31 32  0     0  0  0  0  0  0999 V2000
    3.2590   -0.3840    1.0420 N   0  0  0  0  0  0  0  0  0  0  0  0
    4.1920   -0.2700   -1.1890 C   0  0  0  0  0  0  0  0  0  0  0  0
    4.2570    0.0500    0.1610 C   0  0  0  0  0  0  0  0  0  0  0  0
    2.0240   -0.6590    0.5780 C   0  0  0  0  0  0  0  0  0  0  0  0
    0.9870   -1.2460    1.5000 C   0  0  0  0  0  0  0  0  0  0  0  0
   -0.2980   -1.4570    0.7420 C   0  0  0  0  0  0  0  0  0  0  0  0
   -1.7080   -2.8490   -0.6030 C   0  0  0  0  0  0  0  0  0  0  0  0
   -1.2430   -0.4490    0.6880 C   0  0  0  0  0  0  0  0  0  0  0  0
   -0.5300   -2.6560    0.0940 C   0  0  0  0  0  0  0  0  0  0  0  0
    5.1320    0.1320   -2.0210 N   0  0  0  0  0  0  0  0  0  0  0  0
   -2.4220   -0.6420   -0.0080 C   0  0  0  0  0  0  0  0  0  0  0  0
    5.3290    0.8080    0.6250 C   0  0  0  0  0  0  0  0  0  0  0  0
   -2.6550   -1.8440   -0.6510 C   0  0  0  0  0  0  0  0  0  0  0  0
    5.4390    1.1780    2.0820 C   0  0  0  0  0  0  0  0  0  0  0  0
    6.2910    1.2140   -0.2850 C   0  0  0  0  0  0  0  0  0  0  0  0
    1.7470   -0.4330   -0.5810 O   0  0  0  0  0  0  0  0  0  0  0  0
    6.1620    0.8470   -1.6120 C   0  0  0  0  0  0  0  0  0  0  0  0
   -3.8540    0.8850   -0.0890 I   0  0  0  0  0  0  0  0  0  0  0  0
    3.4580   -0.4900    1.9850 H   0  0  0  0  0  0  0  0  0  0  0  0
    3.3660   -0.8580   -1.5600 H   0  0  0  0  0  0  0  0  0  0  0  0
    1.3420   -2.2010    1.8860 H   0  0  0  0  0  0  0  0  0  0  0  0
    0.8100   -0.5620    2.3310 H   0  0  0  0  0  0  0  0  0  0  0  0
   -1.8890   -3.7860   -1.1090 H   0  0  0  0  0  0  0  0  0  0  0  0
   -1.0600    0.4900    1.1910 H   0  0  0  0  0  0  0  0  0  0  0  0
    0.2100   -3.4410    0.1320 H   0  0  0  0  0  0  0  0  0  0  0  0
   -3.5760   -1.9950   -1.1960 H   0  0  0  0  0  0  0  0  0  0  0  0
    5.9980    0.4060    2.6110 H   0  0  0  0  0  0  0  0  0  0  0  0
    5.9580    2.1320    2.1760 H   0  0  0  0  0  0  0  0  0  0  0  0
    4.4410    1.2630    2.5120 H   0  0  0  0  0  0  0  0  0  0  0  0
    7.1350    1.8040    0.0390 H   0  0  0  0  0  0  0  0  0  0  0  0
    6.9110    1.1580   -2.3250 H   0  0  0  0  0  0  0  0  0  0  0  0
 10 17  2  0  0  0  0
  2 10  1  0  0  0  0
 15 17  1  0  0  0  0
  2  3  2  0  0  0  0
 12 15  2  0  0  0  0
  3 12  1  0  0  0  0
  1  3  1  0  0  0  0
 12 14  1  0  0  0  0
  1  4  1  0  0  0  0
  4 16  2  0  0  0  0
  4  5  1  0  0  0  0
 11 18  1  0  0  0  0
  8 11  2  0  0  0  0
  6  8  1  0  0  0  0
  5  6  1  0  0  0  0
 11 13  1  0  0  0  0
  6  9  2  0  0  0  0
  7 13  2  0  0  0  0
  7  9  1  0  0  0  0
  1 19  1  0  0  0  0
  2 20  1  0  0  0  0
  5 21  1  0  0  0  0
  5 22  1  0  0  0  0
  7 23  1  0  0  0  0
  8 24  1  0  0  0  0
  9 25  1  0  0  0  0
 13 26  1  0  0  0  0
 14 27  1  0  0  0  0
 14 28  1  0  0  0  0
 14 29  1  0  0  0  0
 15 30  1  0  0  0  0
 17 31  1  0  0  0  0
M  END
> <OPENEYE_ISO_SMILES>
Cc1ccncc1NC(=O)Cc2cccc(c2)I

> <OPENEYE_INCHI>
InChI=1S/C14H13IN2O/c1-10-5-6-16-9-13(10)17-14(18)8-11-3-2-4-12(15)7-11/h2-7,9H,8H2,1H3,(H,17,18)

> <OPENEYE_INCHIKEY>
MUVSGYUDBWMCJG-UHFFFAOYSA-N

> <FORMULA>
C14H13IN2O

$$$$
