LQ0
  -OEChem-05102419323D

 35 37  0     0  0  0  0  0  0999 V2000
    2.2560    0.5750    0.9180 N   0  0  0  0  0  0  0  0  0  0  0  0
    2.8070   -0.9850   -0.8490 C   0  0  0  0  0  0  0  0  0  0  0  0
    3.2050   -0.1450    0.1820 C   0  0  0  0  0  0  0  0  0  0  0  0
    1.0600    0.8680    0.3710 C   0  0  0  0  0  0  0  0  0  0  0  0
   -0.0080    1.5300    1.2040 C   0  0  0  0  0  0  0  0  0  0  0  0
   -1.5070    2.8990   -0.2800 C   0  0  0  0  0  0  0  0  0  0  0  0
   -3.1510    1.4010   -0.6680 C   0  0  0  0  0  0  0  0  0  0  0  0
   -3.4940   -1.2050    0.1910 C   0  0  0  0  0  0  0  0  0  0  0  0
   -2.1920    0.8070    0.1710 C   0  0  0  0  0  0  0  0  0  0  0  0
    3.6970   -1.6680   -1.5410 N   0  0  0  0  0  0  0  0  0  0  0  0
   -1.2040    1.7420    0.3860 N   0  0  0  0  0  0  0  0  0  0  0  0
    4.5620   -0.0270    0.4730 C   0  0  0  0  0  0  0  0  0  0  0  0
   -4.2790    0.6770   -1.0600 C   0  0  0  0  0  0  0  0  0  0  0  0
    5.4620   -0.7590   -0.2840 C   0  0  0  0  0  0  0  0  0  0  0  0
   -2.6710    2.7600   -0.9330 C   0  0  0  0  0  0  0  0  0  0  0  0
   -4.4420   -0.6100   -0.6310 C   0  0  0  0  0  0  0  0  0  0  0  0
   -2.3800   -0.5030    0.6010 C   0  0  0  0  0  0  0  0  0  0  0  0
    5.0390    0.8740    1.5830 C   0  0  0  0  0  0  0  0  0  0  0  0
    0.8430    0.6000   -0.7920 O   0  0  0  0  0  0  0  0  0  0  0  0
    4.9880   -1.5830   -1.2880 C   0  0  0  0  0  0  0  0  0  0  0  0
   -3.7260   -2.8390    0.7290 Cl  0  0  0  0  0  0  0  0  0  0  0  0
    2.4580    0.8580    1.8240 H   0  0  0  0  0  0  0  0  0  0  0  0
    1.7570   -1.0840   -1.0830 H   0  0  0  0  0  0  0  0  0  0  0  0
   -0.2560    0.8900    2.0510 H   0  0  0  0  0  0  0  0  0  0  0  0
    0.3580    2.4900    1.5680 H   0  0  0  0  0  0  0  0  0  0  0  0
   -0.9010    3.7920   -0.2770 H   0  0  0  0  0  0  0  0  0  0  0  0
   -5.0210    1.1330   -1.6980 H   0  0  0  0  0  0  0  0  0  0  0  0
    6.5220   -0.6920   -0.0870 H   0  0  0  0  0  0  0  0  0  0  0  0
   -3.1610    3.5080   -1.5380 H   0  0  0  0  0  0  0  0  0  0  0  0
   -5.3090   -1.1730   -0.9430 H   0  0  0  0  0  0  0  0  0  0  0  0
   -1.6480   -0.9740    1.2400 H   0  0  0  0  0  0  0  0  0  0  0  0
    5.0780    0.3110    2.5160 H   0  0  0  0  0  0  0  0  0  0  0  0
    6.0330    1.2500    1.3430 H   0  0  0  0  0  0  0  0  0  0  0  0
    4.3490    1.7110    1.6920 H   0  0  0  0  0  0  0  0  0  0  0  0
    5.6850   -2.1590   -1.8780 H   0  0  0  0  0  0  0  0  0  0  0  0
 10 20  2  0  0  0  0
  2 10  1  0  0  0  0
 14 20  1  0  0  0  0
  2  3  2  0  0  0  0
 12 14  2  0  0  0  0
  3 12  1  0  0  0  0
  1  3  1  0  0  0  0
 12 18  1  0  0  0  0
  1  4  1  0  0  0  0
  8 21  1  0  0  0  0
  4 19  2  0  0  0  0
  4  5  1  0  0  0  0
  8 17  2  0  0  0  0
  8 16  1  0  0  0  0
  9 17  1  0  0  0  0
  5 11  1  0  0  0  0
 13 16  2  0  0  0  0
  9 11  1  0  0  0  0
  7  9  2  0  0  0  0
  6 11  1  0  0  0  0
  7 13  1  0  0  0  0
  7 15  1  0  0  0  0
  6 15  2  0  0  0  0
  1 22  1  0  0  0  0
  2 23  1  0  0  0  0
  5 24  1  0  0  0  0
  5 25  1  0  0  0  0
  6 26  1  0  0  0  0
 13 27  1  0  0  0  0
 14 28  1  0  0  0  0
 15 29  1  0  0  0  0
 16 30  1  0  0  0  0
 17 31  1  0  0  0  0
 18 32  1  0  0  0  0
 18 33  1  0  0  0  0
 18 34  1  0  0  0  0
 20 35  1  0  0  0  0
M  END
> <OPENEYE_ISO_SMILES>
Cc1ccncc1NC(=O)Cn2ccc3c2cc(cc3)Cl

> <OPENEYE_INCHI>
InChI=1S/C16H14ClN3O/c1-11-4-6-18-9-14(11)19-16(21)10-20-7-5-12-2-3-13(17)8-15(12)20/h2-9H,10H2,1H3,(H,19,21)

> <OPENEYE_INCHIKEY>
YPZKHKYPLKRQED-UHFFFAOYSA-N

> <FORMULA>
C16H14ClN3O

$$$$
