LRC
  -OEChem-05102419323D

 30 31  0     0  0  0  0  0  0999 V2000
    1.8430    0.5520    0.9430 N   0  0  0  0  0  0  0  0  0  0  0  0
    2.8100   -1.1440   -0.4880 C   0  0  0  0  0  0  0  0  0  0  0  0
    2.9120    0.0690    0.1790 C   0  0  0  0  0  0  0  0  0  0  0  0
    0.5850    0.1550    0.6660 C   0  0  0  0  0  0  0  0  0  0  0  0
   -0.5510    0.5720    1.5650 C   0  0  0  0  0  0  0  0  0  0  0  0
   -1.8430    0.0020    1.0390 C   0  0  0  0  0  0  0  0  0  0  0  0
   -4.1620   -1.0960    0.1360 C   0  0  0  0  0  0  0  0  0  0  0  0
   -2.2790   -1.2410    1.4550 C   0  0  0  0  0  0  0  0  0  0  0  0
    3.8170   -1.6040   -1.2050 N   0  0  0  0  0  0  0  0  0  0  0  0
   -2.6110    0.7210    0.1360 C   0  0  0  0  0  0  0  0  0  0  0  0
   -3.4080   -1.7480    0.9990 N   0  0  0  0  0  0  0  0  0  0  0  0
    4.0940    0.8000    0.0770 C   0  0  0  0  0  0  0  0  0  0  0  0
   -3.7930    0.1560   -0.3210 C   0  0  0  0  0  0  0  0  0  0  0  0
    4.2480    2.1210    0.7850 C   0  0  0  0  0  0  0  0  0  0  0  0
    5.1230    0.2810   -0.6910 C   0  0  0  0  0  0  0  0  0  0  0  0
    0.3670   -0.5360   -0.3060 O   0  0  0  0  0  0  0  0  0  0  0  0
    4.9500   -0.9390   -1.3170 C   0  0  0  0  0  0  0  0  0  0  0  0
   -4.7950    1.0100   -1.4520 Cl  0  0  0  0  0  0  0  0  0  0  0  0
    2.0080    1.1680    1.6730 H   0  0  0  0  0  0  0  0  0  0  0  0
    1.8990   -1.7190   -0.4160 H   0  0  0  0  0  0  0  0  0  0  0  0
   -0.3720    0.1980    2.5730 H   0  0  0  0  0  0  0  0  0  0  0  0
   -0.6160    1.6600    1.5870 H   0  0  0  0  0  0  0  0  0  0  0  0
   -5.0810   -1.5430   -0.2150 H   0  0  0  0  0  0  0  0  0  0  0  0
   -1.6880   -1.8050    2.1620 H   0  0  0  0  0  0  0  0  0  0  0  0
   -2.2970    1.6970   -0.2030 H   0  0  0  0  0  0  0  0  0  0  0  0
    4.6570    1.9540    1.7810 H   0  0  0  0  0  0  0  0  0  0  0  0
    4.9250    2.7600    0.2170 H   0  0  0  0  0  0  0  0  0  0  0  0
    3.2750    2.6050    0.8680 H   0  0  0  0  0  0  0  0  0  0  0  0
    6.0540    0.8200   -0.7930 H   0  0  0  0  0  0  0  0  0  0  0  0
    5.7510   -1.3500   -1.9140 H   0  0  0  0  0  0  0  0  0  0  0  0
  9 17  2  0  0  0  0
  2  9  1  0  0  0  0
 15 17  1  0  0  0  0
  2  3  2  0  0  0  0
 12 15  2  0  0  0  0
  3 12  1  0  0  0  0
  1  3  1  0  0  0  0
 12 14  1  0  0  0  0
  1  4  1  0  0  0  0
  4 16  2  0  0  0  0
 13 18  1  0  0  0  0
  4  5  1  0  0  0  0
 10 13  2  0  0  0  0
  6 10  1  0  0  0  0
  7 13  1  0  0  0  0
  5  6  1  0  0  0  0
  6  8  2  0  0  0  0
  7 11  2  0  0  0  0
  8 11  1  0  0  0  0
  1 19  1  0  0  0  0
  2 20  1  0  0  0  0
  5 21  1  0  0  0  0
  5 22  1  0  0  0  0
  7 23  1  0  0  0  0
  8 24  1  0  0  0  0
 10 25  1  0  0  0  0
 14 26  1  0  0  0  0
 14 27  1  0  0  0  0
 14 28  1  0  0  0  0
 15 29  1  0  0  0  0
 17 30  1  0  0  0  0
M  END
> <OPENEYE_ISO_SMILES>
Cc1ccncc1NC(=O)Cc2cc(cnc2)Cl

> <OPENEYE_INCHI>
InChI=1S/C13H12ClN3O/c1-9-2-3-15-8-12(9)17-13(18)5-10-4-11(14)7-16-6-10/h2-4,6-8H,5H2,1H3,(H,17,18)

> <OPENEYE_INCHIKEY>
OCRRKPZGCOGESB-UHFFFAOYSA-N

> <FORMULA>
C13H12ClN3O

$$$$
