LWO
  -OEChem-05102419323D

 46 49  0     0  0  0  0  0  0999 V2000
    0.8430   -0.1150   -1.0460 N   0  0  0  0  0  0  0  0  0  0  0  0
   -3.4950    0.9450   -1.9990 N   0  0  0  0  0  0  0  0  0  0  0  0
    1.9280    0.6590   -0.6140 C   0  0  0  0  0  0  0  0  0  0  0  0
    3.2230    0.2890   -0.9530 C   0  0  0  0  0  0  0  0  0  0  0  0
    4.2930    1.0510   -0.5270 C   0  0  0  0  0  0  0  0  0  0  0  0
    1.0760   -1.4060   -1.6980 C   0  0  0  0  0  0  0  0  0  0  0  0
    1.2640   -2.4710   -0.6480 C   0  0  0  0  0  0  0  0  0  0  0  0
    0.5390   -4.0570    0.8390 C   0  0  0  0  0  0  0  0  0  0  0  0
   -1.5860   -0.5640   -1.1920 C   0  0  0  0  0  0  0  0  0  0  0  0
   -5.6410    1.3790    0.7840 C   0  0  0  0  0  0  0  0  0  0  0  0
   -4.4170    0.0520    2.3560 C   0  0  0  0  0  0  0  0  0  0  0  0
    2.2890   -4.0950    1.0120 S   0  0  0  0  0  0  0  0  0  0  0  0
    5.1580    2.9590    0.6730 N   0  0  0  0  0  0  0  0  0  0  0  0
   -2.8340    0.1840   -1.0230 N   0  0  0  0  0  0  0  0  0  0  0  0
    4.0740    2.1870    0.2410 C   0  0  0  0  0  0  0  0  0  0  0  0
    2.4670   -2.8320   -0.1990 C   0  0  0  0  0  0  0  0  0  0  0  0
   -3.4630   -0.2390    1.4060 C   0  0  0  0  0  0  0  0  0  0  0  0
    2.7790    2.5570    0.5810 C   0  0  0  0  0  0  0  0  0  0  0  0
   -5.5010    0.8600    2.0380 C   0  0  0  0  0  0  0  0  0  0  0  0
    0.2000   -3.1450   -0.0730 C   0  0  0  0  0  0  0  0  0  0  0  0
   -0.4170    0.3270   -0.8580 C   0  0  0  0  0  0  0  0  0  0  0  0
   -3.5870    0.2800    0.1230 C   0  0  0  0  0  0  0  0  0  0  0  0
   -4.6840    1.0980   -0.1990 C   0  0  0  0  0  0  0  0  0  0  0  0
    4.9270    4.1580    1.4830 C   0  0  0  0  0  0  0  0  0  0  0  0
   -0.6090    1.4420   -0.4210 O   0  0  0  0  0  0  0  0  0  0  0  0
    1.7090    1.7980    0.1490 C   0  0  0  0  0  0  0  0  0  0  0  0
   -4.5600    1.4590   -1.4920 N   0  0  0  0  0  0  0  0  0  0  0  0
    3.3930   -0.5950   -1.5500 H   0  0  0  0  0  0  0  0  0  0  0  0
    5.3000    0.7630   -0.7900 H   0  0  0  0  0  0  0  0  0  0  0  0
    0.2200   -1.6580   -2.3220 H   0  0  0  0  0  0  0  0  0  0  0  0
    1.9720   -1.3440   -2.3160 H   0  0  0  0  0  0  0  0  0  0  0  0
   -0.1540   -4.6760    1.3890 H   0  0  0  0  0  0  0  0  0  0  0  0
   -1.5860   -1.4270   -0.5260 H   0  0  0  0  0  0  0  0  0  0  0  0
   -1.5010   -0.9020   -2.2240 H   0  0  0  0  0  0  0  0  0  0  0  0
   -6.4890    2.0060    0.5500 H   0  0  0  0  0  0  0  0  0  0  0  0
   -4.3210   -0.3500    3.3530 H   0  0  0  0  0  0  0  0  0  0  0  0
    6.0620    2.7010    0.4350 H   0  0  0  0  0  0  0  0  0  0  0  0
    3.4060   -2.4140   -0.5290 H   0  0  0  0  0  0  0  0  0  0  0  0
   -2.6220   -0.8680    1.6580 H   0  0  0  0  0  0  0  0  0  0  0  0
    2.6090    3.4400    1.1780 H   0  0  0  0  0  0  0  0  0  0  0  0
   -6.2420    1.0800    2.7930 H   0  0  0  0  0  0  0  0  0  0  0  0
   -0.8270   -2.9460   -0.3420 H   0  0  0  0  0  0  0  0  0  0  0  0
    4.4170    3.8800    2.4060 H   0  0  0  0  0  0  0  0  0  0  0  0
    5.8820    4.6240    1.7220 H   0  0  0  0  0  0  0  0  0  0  0  0
    4.3090    4.8600    0.9240 H   0  0  0  0  0  0  0  0  0  0  0  0
    0.7020    2.0880    0.4100 H   0  0  0  0  0  0  0  0  0  0  0  0
  2 27  2  0  0  0  0
 23 27  1  0  0  0  0
 10 23  2  0  0  0  0
 10 19  1  0  0  0  0
  2 14  1  0  0  0  0
 22 23  1  0  0  0  0
 11 19  2  0  0  0  0
 14 22  1  0  0  0  0
  9 14  1  0  0  0  0
 17 22  2  0  0  0  0
 11 17  1  0  0  0  0
  9 21  1  0  0  0  0
 21 25  2  0  0  0  0
  1 21  1  0  0  0  0
 12 16  1  0  0  0  0
  8 12  1  0  0  0  0
  7 16  2  0  0  0  0
  1  6  1  0  0  0  0
  1  3  1  0  0  0  0
  8 20  2  0  0  0  0
  6  7  1  0  0  0  0
  7 20  1  0  0  0  0
  3  4  2  0  0  0  0
  4  5  1  0  0  0  0
  3 26  1  0  0  0  0
  5 15  2  0  0  0  0
 18 26  2  0  0  0  0
 15 18  1  0  0  0  0
 13 15  1  0  0  0  0
 13 24  1  0  0  0  0
  4 28  1  0  0  0  0
  5 29  1  0  0  0  0
  6 30  1  0  0  0  0
  6 31  1  0  0  0  0
  8 32  1  0  0  0  0
  9 33  1  0  0  0  0
  9 34  1  0  0  0  0
 10 35  1  0  0  0  0
 11 36  1  0  0  0  0
 13 37  1  0  0  0  0
 16 38  1  0  0  0  0
 17 39  1  0  0  0  0
 18 40  1  0  0  0  0
 19 41  1  0  0  0  0
 20 42  1  0  0  0  0
 24 43  1  0  0  0  0
 24 44  1  0  0  0  0
 24 45  1  0  0  0  0
 26 46  1  0  0  0  0
M  END
> <OPENEYE_ISO_SMILES>
CNc1ccc(cc1)N(Cc2ccsc2)C(=O)Cn3c4ccccc4nn3

> <OPENEYE_INCHI>
InChI=1S/C20H19N5OS/c1-21-16-6-8-17(9-7-16)24(12-15-10-11-27-14-15)20(26)13-25-19-5-3-2-4-18(19)22-23-25/h2-11,14,21H,12-13H2,1H3

> <OPENEYE_INCHIKEY>
RMLYDSUPMGBCJP-UHFFFAOYSA-N

> <FORMULA>
C20H19N5OS

$$$$
