M0X
  -OEChem-05102419323D

 49 52  0     0  0  0  0  0  0999 V2000
   -0.5000    0.3210    0.7270 N   0  0  0  0  0  0  0  0  0  0  0  0
    3.5060    0.9530   -1.3760 N   0  0  0  0  0  0  0  0  0  0  0  0
   -1.4230   -1.5670   -0.4650 C   0  0  0  0  0  0  0  0  0  0  0  0
   -1.5770   -0.5310    0.4470 C   0  0  0  0  0  0  0  0  0  0  0  0
   -2.7980   -0.3390    1.0810 C   0  0  0  0  0  0  0  0  0  0  0  0
   -3.8580   -1.1790    0.8050 C   0  0  0  0  0  0  0  0  0  0  0  0
   -0.7040    1.5080    1.5610 C   0  0  0  0  0  0  0  0  0  0  0  0
   -2.4810    2.8170    0.4040 C   0  0  0  0  0  0  0  0  0  0  0  0
    0.7230    0.0450    0.2350 C   0  0  0  0  0  0  0  0  0  0  0  0
    4.9480   -0.5460   -0.7850 C   0  0  0  0  0  0  0  0  0  0  0  0
    4.1330   -1.3050    1.3650 C   0  0  0  0  0  0  0  0  0  0  0  0
    6.0190   -1.4430   -0.6780 C   0  0  0  0  0  0  0  0  0  0  0  0
    0.8760   -0.8900   -0.5220 O   0  0  0  0  0  0  0  0  0  0  0  0
   -1.1930    2.6470    0.7030 C   0  0  0  0  0  0  0  0  0  0  0  0
   -0.3390    3.5950    0.1670 C   0  0  0  0  0  0  0  0  0  0  0  0
   -0.9340    4.5360   -0.5680 C   0  0  0  0  0  0  0  0  0  0  0  0
   -2.6670    4.2390   -0.6150 S   0  0  0  0  0  0  0  0  0  0  0  0
   -2.4840   -2.4070   -0.7410 C   0  0  0  0  0  0  0  0  0  0  0  0
   -3.7040   -2.2150   -0.1060 C   0  0  0  0  0  0  0  0  0  0  0  0
   -4.7790   -3.0670   -0.3850 N   0  0  0  0  0  0  0  0  0  0  0  0
   -6.0660   -2.8650    0.2840 C   0  0  0  0  0  0  0  0  0  0  0  0
   -4.6170   -4.1600   -1.3470 C   0  0  0  0  0  0  0  0  0  0  0  0
    1.9030    0.8990    0.6240 C   0  0  0  0  0  0  0  0  0  0  0  0
    3.0850    0.4710   -0.1280 N   0  0  0  0  0  0  0  0  0  0  0  0
    4.0000   -0.4820    0.2510 C   0  0  0  0  0  0  0  0  0  0  0  0
    5.1950   -2.1780    1.4450 C   0  0  0  0  0  0  0  0  0  0  0  0
    6.1320   -2.2410    0.4220 C   0  0  0  0  0  0  0  0  0  0  0  0
    4.5840    0.3450   -1.7280 N   0  0  0  0  0  0  0  0  0  0  0  0
   -0.4750   -1.7130   -0.9610 H   0  0  0  0  0  0  0  0  0  0  0  0
   -2.9170    0.4670    1.7890 H   0  0  0  0  0  0  0  0  0  0  0  0
   -4.8070   -1.0300    1.2980 H   0  0  0  0  0  0  0  0  0  0  0  0
   -1.4440    1.2890    2.3310 H   0  0  0  0  0  0  0  0  0  0  0  0
    0.2390    1.7870    2.0320 H   0  0  0  0  0  0  0  0  0  0  0  0
   -3.2870    2.1770    0.7330 H   0  0  0  0  0  0  0  0  0  0  0  0
    3.4070   -1.2590    2.1630 H   0  0  0  0  0  0  0  0  0  0  0  0
    6.7540   -1.5030   -1.4670 H   0  0  0  0  0  0  0  0  0  0  0  0
    0.7280    3.5760    0.3320 H   0  0  0  0  0  0  0  0  0  0  0  0
   -0.4290    5.3530   -1.0620 H   0  0  0  0  0  0  0  0  0  0  0  0
   -2.3650   -3.2100   -1.4530 H   0  0  0  0  0  0  0  0  0  0  0  0
   -6.6830   -2.1910   -0.3100 H   0  0  0  0  0  0  0  0  0  0  0  0
   -6.5750   -3.8230    0.3900 H   0  0  0  0  0  0  0  0  0  0  0  0
   -5.8990   -2.4310    1.2700 H   0  0  0  0  0  0  0  0  0  0  0  0
   -4.2790   -5.0560   -0.8250 H   0  0  0  0  0  0  0  0  0  0  0  0
   -5.5710   -4.3610   -1.8330 H   0  0  0  0  0  0  0  0  0  0  0  0
   -3.8790   -3.8770   -2.0980 H   0  0  0  0  0  0  0  0  0  0  0  0
    1.6860    1.9430    0.3970 H   0  0  0  0  0  0  0  0  0  0  0  0
    2.0920    0.7910    1.6920 H   0  0  0  0  0  0  0  0  0  0  0  0
    5.3000   -2.8170    2.3090 H   0  0  0  0  0  0  0  0  0  0  0  0
    6.9600   -2.9310    0.4990 H   0  0  0  0  0  0  0  0  0  0  0  0
  2 28  2  0  0  0  0
 10 28  1  0  0  0  0
 10 12  2  0  0  0  0
 12 27  1  0  0  0  0
  2 24  1  0  0  0  0
 10 25  1  0  0  0  0
 26 27  2  0  0  0  0
 24 25  1  0  0  0  0
 23 24  1  0  0  0  0
 11 25  2  0  0  0  0
 11 26  1  0  0  0  0
  9 23  1  0  0  0  0
  9 13  2  0  0  0  0
  1  9  1  0  0  0  0
  1  4  1  0  0  0  0
  1  7  1  0  0  0  0
 15 16  2  0  0  0  0
 16 17  1  0  0  0  0
  4  5  2  0  0  0  0
  5  6  1  0  0  0  0
 14 15  1  0  0  0  0
  8 17  1  0  0  0  0
  7 14  1  0  0  0  0
  8 14  2  0  0  0  0
  3  4  1  0  0  0  0
  6 19  2  0  0  0  0
  3 18  2  0  0  0  0
 20 22  1  0  0  0  0
 18 19  1  0  0  0  0
 19 20  1  0  0  0  0
 20 21  1  0  0  0  0
  3 29  1  0  0  0  0
  5 30  1  0  0  0  0
  6 31  1  0  0  0  0
  7 32  1  0  0  0  0
  7 33  1  0  0  0  0
  8 34  1  0  0  0  0
 11 35  1  0  0  0  0
 12 36  1  0  0  0  0
 15 37  1  0  0  0  0
 16 38  1  0  0  0  0
 18 39  1  0  0  0  0
 21 40  1  0  0  0  0
 21 41  1  0  0  0  0
 21 42  1  0  0  0  0
 22 43  1  0  0  0  0
 22 44  1  0  0  0  0
 22 45  1  0  0  0  0
 23 46  1  0  0  0  0
 23 47  1  0  0  0  0
 26 48  1  0  0  0  0
 27 49  1  0  0  0  0
M  END
> <OPENEYE_ISO_SMILES>
CN(C)c1ccc(cc1)N(Cc2ccsc2)C(=O)Cn3c4ccccc4nn3

> <OPENEYE_INCHI>
InChI=1S/C21H21N5OS/c1-24(2)17-7-9-18(10-8-17)25(13-16-11-12-28-15-16)21(27)14-26-20-6-4-3-5-19(20)22-23-26/h3-12,15H,13-14H2,1-2H3

> <OPENEYE_INCHIKEY>
UEXLZKRRYKGPRD-UHFFFAOYSA-N

> <FORMULA>
C21H21N5OS

$$$$
