M9U
  -OEChem-05102419323D

 37 40  0     1  0  0  0  0  0999 V2000
    2.5950    1.3480   -1.4540 N   0  0  0  0  0  0  0  0  0  0  0  0
    3.5480    0.1690    0.0740 N   0  0  0  0  0  0  0  0  0  0  0  0
   -3.2710    2.7320    1.0600 C   0  0  0  0  0  0  0  0  0  0  0  0
   -1.8600    2.7930    0.4610 C   0  0  0  0  0  0  0  0  0  0  0  0
   -1.1690    1.4510    0.7200 C   0  0  2  0  0  0  0  0  0  0  0  0
    0.0960    1.3720   -0.0940 C   0  0  0  0  0  0  0  0  0  0  0  0
    2.3770    0.7600   -0.3020 C   0  0  0  0  0  0  0  0  0  0  0  0
    3.7950   -0.6050    1.2930 C   0  0  0  0  0  0  0  0  0  0  0  0
   -2.0890    0.3230    0.3290 C   0  0  0  0  0  0  0  0  0  0  0  0
    0.1400    1.8760   -1.1970 O   0  0  0  0  0  0  0  0  0  0  0  0
   -4.0190    1.7440    0.3500 O   0  0  0  0  0  0  0  0  0  0  0  0
   -3.4500    0.5240    0.1690 C   0  0  0  0  0  0  0  0  0  0  0  0
   -4.2670   -0.5440   -0.1880 C   0  0  0  0  0  0  0  0  0  0  0  0
   -3.7250   -1.7980   -0.3870 C   0  0  0  0  0  0  0  0  0  0  0  0
   -1.5510   -0.9370    0.1270 C   0  0  0  0  0  0  0  0  0  0  0  0
   -2.3650   -1.9950   -0.2290 C   0  0  0  0  0  0  0  0  0  0  0  0
   -1.6820   -3.5710   -0.4800 Cl  0  0  0  0  0  0  0  0  0  0  0  0
    1.1790    0.7420    0.4020 N   0  0  0  0  0  0  0  0  0  0  0  0
    4.4410    0.4500   -0.9190 C   0  0  0  0  0  0  0  0  0  0  0  0
    3.8150    1.1620   -1.8140 N   0  0  0  0  0  0  0  0  0  0  0  0
    5.2420   -1.0000    1.5970 C   0  0  0  0  0  0  0  0  0  0  0  0
    4.2430   -2.0590    1.1270 C   0  0  0  0  0  0  0  0  0  0  0  0
   -3.2110    2.4600    2.1140 H   0  0  0  0  0  0  0  0  0  0  0  0
   -3.7550    3.7030    0.9580 H   0  0  0  0  0  0  0  0  0  0  0  0
   -1.9230    2.9710   -0.6120 H   0  0  0  0  0  0  0  0  0  0  0  0
   -1.2940    3.5950    0.9350 H   0  0  0  0  0  0  0  0  0  0  0  0
   -0.9240    1.3680    1.7790 H   0  0  0  0  0  0  0  0  0  0  0  0
    3.1490   -0.3710    2.1380 H   0  0  0  0  0  0  0  0  0  0  0  0
   -5.3290   -0.3910   -0.3110 H   0  0  0  0  0  0  0  0  0  0  0  0
   -4.3630   -2.6240   -0.6650 H   0  0  0  0  0  0  0  0  0  0  0  0
   -0.4890   -1.0930    0.2500 H   0  0  0  0  0  0  0  0  0  0  0  0
    1.1220    0.2760    1.2510 H   0  0  0  0  0  0  0  0  0  0  0  0
    5.4750    0.1400   -0.9570 H   0  0  0  0  0  0  0  0  0  0  0  0
    6.0090   -0.6830    0.8910 H   0  0  0  0  0  0  0  0  0  0  0  0
    5.5470   -1.0260    2.6430 H   0  0  0  0  0  0  0  0  0  0  0  0
    3.8910   -2.7810    1.8630 H   0  0  0  0  0  0  0  0  0  0  0  0
    4.3530   -2.4390    0.1110 H   0  0  0  0  0  0  0  0  0  0  0  0
  1 20  1  0  0  0  0
 19 20  2  0  0  0  0
  1  7  2  0  0  0  0
  2 19  1  0  0  0  0
  2  7  1  0  0  0  0
  7 18  1  0  0  0  0
  2  8  1  0  0  0  0
  6 18  1  0  0  0  0
  8 21  1  0  0  0  0
 21 22  1  0  0  0  0
  8 22  1  0  0  0  0
  6 10  2  0  0  0  0
  5  6  1  0  0  0  0
  4  5  1  0  0  0  0
  3  4  1  0  0  0  0
  5  9  1  0  0  0  0
  3 11  1  0  0  0  0
  9 15  2  0  0  0  0
  9 12  1  0  0  0  0
 15 16  1  0  0  0  0
 11 12  1  0  0  0  0
 12 13  2  0  0  0  0
 16 17  1  0  0  0  0
 14 16  2  0  0  0  0
 13 14  1  0  0  0  0
  3 23  1  0  0  0  0
  3 24  1  0  0  0  0
  4 25  1  0  0  0  0
  4 26  1  0  0  0  0
  5 27  1  0  0  0  0
  8 28  1  0  0  0  0
 13 29  1  0  0  0  0
 14 30  1  0  0  0  0
 15 31  1  0  0  0  0
 18 32  1  0  0  0  0
 19 33  1  0  0  0  0
 21 34  1  0  0  0  0
 21 35  1  0  0  0  0
 22 36  1  0  0  0  0
 22 37  1  0  0  0  0
M  END
> <OPENEYE_ISO_SMILES>
c1cc2c(cc1Cl)[C@H](CCO2)C(=O)Nc3nncn3C4CC4

> <OPENEYE_INCHI>
InChI=1S/C15H15ClN4O2/c16-9-1-4-13-12(7-9)11(5-6-22-13)14(21)18-15-19-17-8-20(15)10-2-3-10/h1,4,7-8,10-11H,2-3,5-6H2,(H,18,19,21)/t11-/m0/s1

> <OPENEYE_INCHIKEY>
MMSFMHOFPDOWCH-NSHDSACASA-N

> <FORMULA>
C15H15ClN4O2

$$$$
