M5I
  -OEChem-05102419323D

 31 32  0     0  0  0  0  0  0999 V2000
   -0.5770    0.3960    1.0950 N   0  0  0  0  0  0  0  0  0  0  0  0
    3.7850   -0.9320    0.9270 C   0  0  0  0  0  0  0  0  0  0  0  0
    3.1100    0.2190    0.5690 C   0  0  0  0  0  0  0  0  0  0  0  0
    1.8740    0.6440    1.3200 C   0  0  0  0  0  0  0  0  0  0  0  0
    0.6500    0.1350    0.6020 C   0  0  0  0  0  0  0  0  0  0  0  0
   -1.7070   -0.1680    0.4920 C   0  0  0  0  0  0  0  0  0  0  0  0
   -2.7490   -1.9840   -0.6780 C   0  0  0  0  0  0  0  0  0  0  0  0
   -2.9030    0.5360    0.4630 C   0  0  0  0  0  0  0  0  0  0  0  0
   -1.6320   -1.4300   -0.0830 C   0  0  0  0  0  0  0  0  0  0  0  0
    4.8710   -1.3060    0.2780 N   0  0  0  0  0  0  0  0  0  0  0  0
   -4.0180   -0.0240   -0.1330 C   0  0  0  0  0  0  0  0  0  0  0  0
    3.5830    0.9790   -0.4910 C   0  0  0  0  0  0  0  0  0  0  0  0
   -3.9410   -1.2840   -0.7010 C   0  0  0  0  0  0  0  0  0  0  0  0
    2.8750    2.2400   -0.9120 C   0  0  0  0  0  0  0  0  0  0  0  0
    4.7230    0.5500   -1.1520 C   0  0  0  0  0  0  0  0  0  0  0  0
    0.7700   -0.5090   -0.4190 O   0  0  0  0  0  0  0  0  0  0  0  0
    5.3520   -0.6060   -0.7300 C   0  0  0  0  0  0  0  0  0  0  0  0
   -5.5150    0.8550   -0.1710 Cl  0  0  0  0  0  0  0  0  0  0  0  0
   -0.6760    0.9710    1.8700 H   0  0  0  0  0  0  0  0  0  0  0  0
    3.4230   -1.5290    1.7510 H   0  0  0  0  0  0  0  0  0  0  0  0
    1.9020    0.2300    2.3280 H   0  0  0  0  0  0  0  0  0  0  0  0
    1.8380    1.7320    1.3740 H   0  0  0  0  0  0  0  0  0  0  0  0
   -2.6910   -2.9650   -1.1250 H   0  0  0  0  0  0  0  0  0  0  0  0
   -2.9630    1.5190    0.9060 H   0  0  0  0  0  0  0  0  0  0  0  0
   -0.7020   -1.9770   -0.0660 H   0  0  0  0  0  0  0  0  0  0  0  0
   -4.8130   -1.7190   -1.1660 H   0  0  0  0  0  0  0  0  0  0  0  0
    3.2860    3.0880   -0.3640 H   0  0  0  0  0  0  0  0  0  0  0  0
    3.0160    2.3960   -1.9820 H   0  0  0  0  0  0  0  0  0  0  0  0
    1.8100    2.1490   -0.6960 H   0  0  0  0  0  0  0  0  0  0  0  0
    5.1200    1.1170   -1.9820 H   0  0  0  0  0  0  0  0  0  0  0  0
    6.2440   -0.9450   -1.2370 H   0  0  0  0  0  0  0  0  0  0  0  0
 10 17  2  0  0  0  0
  2 10  1  0  0  0  0
 15 17  1  0  0  0  0
  2  3  2  0  0  0  0
 12 15  2  0  0  0  0
  3 12  1  0  0  0  0
  3  4  1  0  0  0  0
 12 14  1  0  0  0  0
  5 16  2  0  0  0  0
  4  5  1  0  0  0  0
  1  5  1  0  0  0  0
  1  6  1  0  0  0  0
  6  8  2  0  0  0  0
  8 11  1  0  0  0  0
  6  9  1  0  0  0  0
 11 18  1  0  0  0  0
 11 13  2  0  0  0  0
  7  9  2  0  0  0  0
  7 13  1  0  0  0  0
  1 19  1  0  0  0  0
  2 20  1  0  0  0  0
  4 21  1  0  0  0  0
  4 22  1  0  0  0  0
  7 23  1  0  0  0  0
  8 24  1  0  0  0  0
  9 25  1  0  0  0  0
 13 26  1  0  0  0  0
 14 27  1  0  0  0  0
 14 28  1  0  0  0  0
 14 29  1  0  0  0  0
 15 30  1  0  0  0  0
 17 31  1  0  0  0  0
M  END
> <OPENEYE_ISO_SMILES>
Cc1ccncc1CC(=O)Nc2cccc(c2)Cl

> <OPENEYE_INCHI>
InChI=1S/C14H13ClN2O/c1-10-5-6-16-9-11(10)7-14(18)17-13-4-2-3-12(15)8-13/h2-6,8-9H,7H2,1H3,(H,17,18)

> <OPENEYE_INCHIKEY>
VKQLRXLEZSWDDW-UHFFFAOYSA-N

> <FORMULA>
C14H13ClN2O

$$$$
