MVR
  -OEChem-05102419323D

 50 53  0     0  0  0  0  0  0999 V2000
   -0.8040   -0.2000   -0.9520 N   0  0  0  0  0  0  0  0  0  0  0  0
    5.0950    0.7370    1.3820 N   0  0  0  0  0  0  0  0  0  0  0  0
   -1.1850   -1.3830   -1.7270 C   0  0  0  0  0  0  0  0  0  0  0  0
   -1.7530    0.6400   -0.4940 C   0  0  0  0  0  0  0  0  0  0  0  0
   -3.2110    0.3030   -0.6790 C   0  0  0  0  0  0  0  0  0  0  0  0
   -4.0590    1.3960   -0.0830 C   0  0  0  0  0  0  0  0  0  0  0  0
   -4.4530    2.4790   -0.8550 C   0  0  0  0  0  0  0  0  0  0  0  0
   -5.5990    3.3240    1.0620 C   0  0  0  0  0  0  0  0  0  0  0  0
    1.0210   -0.0390    0.6200 C   0  0  0  0  0  0  0  0  0  0  0  0
    3.2160    0.5540   -0.1490 C   0  0  0  0  0  0  0  0  0  0  0  0
    1.4040    0.4020   -1.7170 C   0  0  0  0  0  0  0  0  0  0  0  0
    6.8380    1.4160   -0.6220 C   0  0  0  0  0  0  0  0  0  0  0  0
    7.2660    1.3130    0.6940 C   0  0  0  0  0  0  0  0  0  0  0  0
    6.3590    0.9690    1.6780 C   0  0  0  0  0  0  0  0  0  0  0  0
   -1.4350    1.6670    0.0670 O   0  0  0  0  0  0  0  0  0  0  0  0
   -4.4580    1.3300    1.2380 C   0  0  0  0  0  0  0  0  0  0  0  0
   -5.2050    2.2810    1.7650 N   0  0  0  0  0  0  0  0  0  0  0  0
   -5.2330    3.4610   -0.2640 C   0  0  0  0  0  0  0  0  0  0  0  0
   -1.4130   -2.5440   -0.7930 C   0  0  0  0  0  0  0  0  0  0  0  0
   -2.6470   -2.9470   -0.2720 C   0  0  0  0  0  0  0  0  0  0  0  0
   -2.4320   -4.0230    0.5210 C   0  0  0  0  0  0  0  0  0  0  0  0
   -0.4910   -3.3510   -0.3330 N   0  0  0  0  0  0  0  0  0  0  0  0
   -1.1090   -4.2900    0.5020 N   0  0  0  0  0  0  0  0  0  0  0  0
   -0.4390   -5.3740    1.2250 C   0  0  0  0  0  0  0  0  0  0  0  0
    0.5440    0.0550   -0.6820 C   0  0  0  0  0  0  0  0  0  0  0  0
    2.7360    0.6440   -1.4550 C   0  0  0  0  0  0  0  0  0  0  0  0
    2.3490    0.2110    0.8880 C   0  0  0  0  0  0  0  0  0  0  0  0
    4.6460    0.8240    0.1370 C   0  0  0  0  0  0  0  0  0  0  0  0
    5.5060    1.1670   -0.9050 C   0  0  0  0  0  0  0  0  0  0  0  0
   -2.1010   -1.1760   -2.2800 H   0  0  0  0  0  0  0  0  0  0  0  0
   -0.3870   -1.6320   -2.4270 H   0  0  0  0  0  0  0  0  0  0  0  0
   -3.4300    0.2120   -1.7430 H   0  0  0  0  0  0  0  0  0  0  0  0
   -3.4310   -0.6410   -0.1810 H   0  0  0  0  0  0  0  0  0  0  0  0
   -4.1600    2.5550   -1.8910 H   0  0  0  0  0  0  0  0  0  0  0  0
   -6.2060    4.0850    1.5290 H   0  0  0  0  0  0  0  0  0  0  0  0
    0.3490   -0.3050    1.4230 H   0  0  0  0  0  0  0  0  0  0  0  0
    1.0310    0.4750   -2.7280 H   0  0  0  0  0  0  0  0  0  0  0  0
    7.5280    1.6840   -1.4090 H   0  0  0  0  0  0  0  0  0  0  0  0
    8.3000    1.5000    0.9470 H   0  0  0  0  0  0  0  0  0  0  0  0
    6.6890    0.8890    2.7030 H   0  0  0  0  0  0  0  0  0  0  0  0
   -4.1550    0.4910    1.8460 H   0  0  0  0  0  0  0  0  0  0  0  0
   -5.5590    4.3180   -0.8360 H   0  0  0  0  0  0  0  0  0  0  0  0
   -3.6020   -2.4830   -0.4690 H   0  0  0  0  0  0  0  0  0  0  0  0
   -3.1840   -4.5690    1.0700 H   0  0  0  0  0  0  0  0  0  0  0  0
   -0.4090   -6.2650    0.5980 H   0  0  0  0  0  0  0  0  0  0  0  0
    0.5780   -5.0710    1.4740 H   0  0  0  0  0  0  0  0  0  0  0  0
   -0.9870   -5.5930    2.1410 H   0  0  0  0  0  0  0  0  0  0  0  0
    3.4050    0.9130   -2.2590 H   0  0  0  0  0  0  0  0  0  0  0  0
    2.7180    0.1420    1.9010 H   0  0  0  0  0  0  0  0  0  0  0  0
    5.1390    1.2380   -1.9180 H   0  0  0  0  0  0  0  0  0  0  0  0
  8 17  2  0  0  0  0
 16 17  1  0  0  0  0
  8 18  1  0  0  0  0
  6 16  2  0  0  0  0
  7 18  2  0  0  0  0
  6  7  1  0  0  0  0
  5  6  1  0  0  0  0
  4  5  1  0  0  0  0
  4 15  2  0  0  0  0
  1  4  1  0  0  0  0
 20 21  2  0  0  0  0
 19 20  1  0  0  0  0
  1  3  1  0  0  0  0
  1 25  1  0  0  0  0
 21 23  1  0  0  0  0
  3 19  1  0  0  0  0
 19 22  2  0  0  0  0
 11 25  2  0  0  0  0
 11 26  1  0  0  0  0
  9 25  1  0  0  0  0
 10 26  2  0  0  0  0
 22 23  1  0  0  0  0
 23 24  1  0  0  0  0
  9 27  2  0  0  0  0
 10 27  1  0  0  0  0
 10 28  1  0  0  0  0
  2 28  2  0  0  0  0
 28 29  1  0  0  0  0
  2 14  1  0  0  0  0
 12 29  2  0  0  0  0
 13 14  2  0  0  0  0
 12 13  1  0  0  0  0
  3 30  1  0  0  0  0
  3 31  1  0  0  0  0
  5 32  1  0  0  0  0
  5 33  1  0  0  0  0
  7 34  1  0  0  0  0
  8 35  1  0  0  0  0
  9 36  1  0  0  0  0
 11 37  1  0  0  0  0
 12 38  1  0  0  0  0
 13 39  1  0  0  0  0
 14 40  1  0  0  0  0
 16 41  1  0  0  0  0
 18 42  1  0  0  0  0
 20 43  1  0  0  0  0
 21 44  1  0  0  0  0
 24 45  1  0  0  0  0
 24 46  1  0  0  0  0
 24 47  1  0  0  0  0
 26 48  1  0  0  0  0
 27 49  1  0  0  0  0
 29 50  1  0  0  0  0
M  END
> <OPENEYE_ISO_SMILES>
Cn1ccc(n1)CN(c2ccc(cc2)c3ccccn3)C(=O)Cc4cccnc4

> <OPENEYE_INCHI>
InChI=1S/C23H21N5O/c1-27-14-11-20(26-27)17-28(23(29)15-18-5-4-12-24-16-18)21-9-7-19(8-10-21)22-6-2-3-13-25-22/h2-14,16H,15,17H2,1H3

> <OPENEYE_INCHIKEY>
SMTCZNNYBUKPMF-UHFFFAOYSA-N

> <FORMULA>
C23H21N5O

$$$$
