N3I
  -OEChem-05102419323D

 35 36  0     0  0  0  0  0  0999 V2000
   -4.0980    1.2570   -1.7180 N   0  0  0  0  0  0  0  0  0  0  0  0
    2.0090    0.8770    0.9040 C   0  0  0  0  0  0  0  0  0  0  0  0
    1.3730   -0.3500    0.9510 C   0  0  0  0  0  0  0  0  0  0  0  0
    0.0430   -0.4820    1.6450 C   0  0  0  0  0  0  0  0  0  0  0  0
   -1.0670   -0.2270    0.6580 C   0  0  0  0  0  0  0  0  0  0  0  0
   -3.3790    0.0580    0.1730 C   0  0  0  0  0  0  0  0  0  0  0  0
   -5.3230    0.7850   -1.5880 C   0  0  0  0  0  0  0  0  0  0  0  0
   -4.9730   -1.4020    1.4730 C   0  0  0  0  0  0  0  0  0  0  0  0
   -0.8030    0.0360   -0.4960 O   0  0  0  0  0  0  0  0  0  0  0  0
    3.2310    1.0020    0.2670 C   0  0  0  0  0  0  0  0  0  0  0  0
    4.0270    2.5440    0.2110 Cl  0  0  0  0  0  0  0  0  0  0  0  0
    3.8190   -0.1010   -0.3250 C   0  0  0  0  0  0  0  0  0  0  0  0
    1.9560   -1.4540    0.3600 C   0  0  0  0  0  0  0  0  0  0  0  0
    3.1820   -1.3320   -0.2800 C   0  0  0  0  0  0  0  0  0  0  0  0
    3.7570   -2.4170   -0.8610 O   0  0  0  0  0  0  0  0  0  0  0  0
    5.0180   -2.2180   -1.5030 C   0  0  0  0  0  0  0  0  0  0  0  0
   -2.3520   -0.2920    1.0580 N   0  0  0  0  0  0  0  0  0  0  0  0
   -4.6620   -0.4590    0.3400 C   0  0  0  0  0  0  0  0  0  0  0  0
   -5.6440   -0.0830   -0.5610 C   0  0  0  0  0  0  0  0  0  0  0  0
   -3.1340    0.9250   -0.8830 C   0  0  0  0  0  0  0  0  0  0  0  0
    1.5490    1.7400    1.3630 H   0  0  0  0  0  0  0  0  0  0  0  0
   -0.0560   -1.4890    2.0520 H   0  0  0  0  0  0  0  0  0  0  0  0
   -0.0180    0.2440    2.4560 H   0  0  0  0  0  0  0  0  0  0  0  0
   -6.0850    1.0820   -2.2930 H   0  0  0  0  0  0  0  0  0  0  0  0
   -5.2920   -0.8310    2.3440 H   0  0  0  0  0  0  0  0  0  0  0  0
   -5.7710   -2.0810    1.1710 H   0  0  0  0  0  0  0  0  0  0  0  0
   -4.0820   -1.9780    1.7220 H   0  0  0  0  0  0  0  0  0  0  0  0
    4.7720   -0.0040   -0.8220 H   0  0  0  0  0  0  0  0  0  0  0  0
    1.4590   -2.4120    0.3970 H   0  0  0  0  0  0  0  0  0  0  0  0
    4.9080   -1.4820   -2.2990 H   0  0  0  0  0  0  0  0  0  0  0  0
    5.7430   -1.8580   -0.7730 H   0  0  0  0  0  0  0  0  0  0  0  0
    5.3640   -3.1610   -1.9240 H   0  0  0  0  0  0  0  0  0  0  0  0
   -2.5660   -0.5810    1.9590 H   0  0  0  0  0  0  0  0  0  0  0  0
   -6.6500   -0.4640   -0.4630 H   0  0  0  0  0  0  0  0  0  0  0  0
   -2.1430    1.3320   -1.0210 H   0  0  0  0  0  0  0  0  0  0  0  0
  1  7  2  0  0  0  0
  1 20  1  0  0  0  0
  7 19  1  0  0  0  0
  6 20  2  0  0  0  0
 18 19  2  0  0  0  0
  6 18  1  0  0  0  0
  6 17  1  0  0  0  0
  8 18  1  0  0  0  0
  5 17  1  0  0  0  0
  5  9  2  0  0  0  0
  4  5  1  0  0  0  0
 10 11  1  0  0  0  0
  3  4  1  0  0  0  0
  2 10  2  0  0  0  0
  2  3  1  0  0  0  0
 10 12  1  0  0  0  0
  3 13  2  0  0  0  0
 12 14  2  0  0  0  0
 13 14  1  0  0  0  0
 14 15  1  0  0  0  0
 15 16  1  0  0  0  0
  2 21  1  0  0  0  0
  4 22  1  0  0  0  0
  4 23  1  0  0  0  0
  7 24  1  0  0  0  0
  8 25  1  0  0  0  0
  8 26  1  0  0  0  0
  8 27  1  0  0  0  0
 12 28  1  0  0  0  0
 13 29  1  0  0  0  0
 16 30  1  0  0  0  0
 16 31  1  0  0  0  0
 16 32  1  0  0  0  0
 17 33  1  0  0  0  0
 19 34  1  0  0  0  0
 20 35  1  0  0  0  0
M  END
> <OPENEYE_ISO_SMILES>
Cc1ccncc1NC(=O)Cc2cc(cc(c2)Cl)OC

> <OPENEYE_INCHI>
InChI=1S/C15H15ClN2O2/c1-10-3-4-17-9-14(10)18-15(19)7-11-5-12(16)8-13(6-11)20-2/h3-6,8-9H,7H2,1-2H3,(H,18,19)

> <OPENEYE_INCHIKEY>
WXCJKPMYIYFEDR-UHFFFAOYSA-N

> <FORMULA>
C15H15ClN2O2

$$$$
