N3R
  -OEChem-05102419323D

 43 45  0     0  0  0  0  0  0999 V2000
    4.4610   -0.2880    1.6350 N   0  0  0  0  0  0  0  0  0  0  0  0
   -5.8370   -1.3480    0.9360 C   0  0  0  0  0  0  0  0  0  0  0  0
   -4.6300   -1.4980    0.2790 C   0  0  0  0  0  0  0  0  0  0  0  0
   -3.8460   -0.3880    0.0090 C   0  0  0  0  0  0  0  0  0  0  0  0
   -2.2800   -1.8600   -1.0090 C   0  0  0  0  0  0  0  0  0  0  0  0
   -0.9260   -1.8240   -1.7200 C   0  0  0  0  0  0  0  0  0  0  0  0
    2.4500   -0.9280   -0.2130 C   0  0  0  0  0  0  0  0  0  0  0  0
    3.9970    0.7170    0.8120 C   0  0  0  0  0  0  0  0  0  0  0  0
    4.0350    2.9960    0.0700 C   0  0  0  0  0  0  0  0  0  0  0  0
    2.5130    1.4540   -0.9650 C   0  0  0  0  0  0  0  0  0  0  0  0
    1.5450    1.1930   -1.8700 F   0  0  0  0  0  0  0  0  0  0  0  0
    3.0410    2.7240   -0.8590 C   0  0  0  0  0  0  0  0  0  0  0  0
    4.5120    2.0050    0.9010 C   0  0  0  0  0  0  0  0  0  0  0  0
    2.9880    0.4380   -0.1280 C   0  0  0  0  0  0  0  0  0  0  0  0
    3.9710   -1.5370    1.5530 C   0  0  0  0  0  0  0  0  0  0  0  0
    4.4080   -2.3960    2.2990 O   0  0  0  0  0  0  0  0  0  0  0  0
    2.9600   -1.8790    0.6230 C   0  0  0  0  0  0  0  0  0  0  0  0
    1.3860   -1.2660   -1.1900 C   0  0  0  0  0  0  0  0  0  0  0  0
    1.6690   -1.4450   -2.3580 O   0  0  0  0  0  0  0  0  0  0  0  0
    0.1060   -1.3750   -0.7820 N   0  0  0  0  0  0  0  0  0  0  0  0
   -2.6580   -0.5330   -0.6370 O   0  0  0  0  0  0  0  0  0  0  0  0
   -4.2770    0.8770    0.3990 C   0  0  0  0  0  0  0  0  0  0  0  0
   -3.5110    1.9690    0.1360 O   0  0  0  0  0  0  0  0  0  0  0  0
   -4.0170    3.2350    0.5660 C   0  0  0  0  0  0  0  0  0  0  0  0
   -6.2650   -0.0920    1.3240 C   0  0  0  0  0  0  0  0  0  0  0  0
   -5.4880    1.0200    1.0570 C   0  0  0  0  0  0  0  0  0  0  0  0
    5.1560   -0.0900    2.2820 H   0  0  0  0  0  0  0  0  0  0  0  0
   -6.4490   -2.2140    1.1430 H   0  0  0  0  0  0  0  0  0  0  0  0
   -4.2970   -2.4800   -0.0220 H   0  0  0  0  0  0  0  0  0  0  0  0
   -3.0310   -2.2780   -1.6790 H   0  0  0  0  0  0  0  0  0  0  0  0
   -2.2050   -2.4800   -0.1160 H   0  0  0  0  0  0  0  0  0  0  0  0
   -0.6780   -2.8220   -2.0810 H   0  0  0  0  0  0  0  0  0  0  0  0
   -0.9760   -1.1350   -2.5630 H   0  0  0  0  0  0  0  0  0  0  0  0
    4.4400    3.9950    0.1420 H   0  0  0  0  0  0  0  0  0  0  0  0
    2.6780    3.5120   -1.5030 H   0  0  0  0  0  0  0  0  0  0  0  0
    5.2860    2.2290    1.6200 H   0  0  0  0  0  0  0  0  0  0  0  0
    2.5860   -2.8920    0.5810 H   0  0  0  0  0  0  0  0  0  0  0  0
   -0.1310   -1.1560    0.1320 H   0  0  0  0  0  0  0  0  0  0  0  0
   -3.3110    4.0190    0.2940 H   0  0  0  0  0  0  0  0  0  0  0  0
   -4.9760    3.4260    0.0840 H   0  0  0  0  0  0  0  0  0  0  0  0
   -4.1500    3.2240    1.6480 H   0  0  0  0  0  0  0  0  0  0  0  0
   -7.2110    0.0210    1.8330 H   0  0  0  0  0  0  0  0  0  0  0  0
   -5.8250    2.0000    1.3620 H   0  0  0  0  0  0  0  0  0  0  0  0
 15 16  2  0  0  0  0
  1 15  1  0  0  0  0
 15 17  1  0  0  0  0
  1  8  1  0  0  0  0
  7 17  2  0  0  0  0
  8 13  2  0  0  0  0
  8 14  1  0  0  0  0
  9 13  1  0  0  0  0
  7 14  1  0  0  0  0
  7 18  1  0  0  0  0
 10 14  2  0  0  0  0
 18 19  2  0  0  0  0
 18 20  1  0  0  0  0
  9 12  2  0  0  0  0
  6 20  1  0  0  0  0
 10 12  1  0  0  0  0
 10 11  1  0  0  0  0
  2  3  2  0  0  0  0
  3  4  1  0  0  0  0
  2 25  1  0  0  0  0
  5  6  1  0  0  0  0
  4 21  1  0  0  0  0
  5 21  1  0  0  0  0
  4 22  2  0  0  0  0
 25 26  2  0  0  0  0
 22 26  1  0  0  0  0
 22 23  1  0  0  0  0
 23 24  1  0  0  0  0
  1 27  1  0  0  0  0
  2 28  1  0  0  0  0
  3 29  1  0  0  0  0
  5 30  1  0  0  0  0
  5 31  1  0  0  0  0
  6 32  1  0  0  0  0
  6 33  1  0  0  0  0
  9 34  1  0  0  0  0
 12 35  1  0  0  0  0
 13 36  1  0  0  0  0
 17 37  1  0  0  0  0
 20 38  1  0  0  0  0
 24 39  1  0  0  0  0
 24 40  1  0  0  0  0
 24 41  1  0  0  0  0
 25 42  1  0  0  0  0
 26 43  1  0  0  0  0
M  END
> <OPENEYE_ISO_SMILES>
COc1ccccc1OCCNC(=O)c2cc(=O)[nH]c3c2c(ccc3)F

> <OPENEYE_INCHI>
InChI=1S/C19H17FN2O4/c1-25-15-7-2-3-8-16(15)26-10-9-21-19(24)12-11-17(23)22-14-6-4-5-13(20)18(12)14/h2-8,11H,9-10H2,1H3,(H,21,24)(H,22,23)

> <OPENEYE_INCHIKEY>
HLMOMNRZAYBAJZ-UHFFFAOYSA-N

> <FORMULA>
C19H17FN2O4

$$$$
