N43
  -OEChem-05102419323D

 47 49  0     0  0  0  0  0  0999 V2000
    4.5080   -0.4790    1.6060 N   0  0  0  0  0  0  0  0  0  0  0  0
   -5.9030   -1.4610    0.8260 C   0  0  0  0  0  0  0  0  0  0  0  0
   -4.6720   -1.5990    0.2130 C   0  0  0  0  0  0  0  0  0  0  0  0
   -3.8420   -0.4980    0.0690 C   0  0  0  0  0  0  0  0  0  0  0  0
   -2.2760   -1.9380   -0.9950 C   0  0  0  0  0  0  0  0  0  0  0  0
   -0.9320   -1.8740   -1.7220 C   0  0  0  0  0  0  0  0  0  0  0  0
    2.4630   -1.0070   -0.2390 C   0  0  0  0  0  0  0  0  0  0  0  0
    3.9400    0.5920    0.9470 C   0  0  0  0  0  0  0  0  0  0  0  0
    3.7960    2.9480    0.5220 C   0  0  0  0  0  0  0  0  0  0  0  0
    2.3270    1.4550   -0.6540 C   0  0  0  0  0  0  0  0  0  0  0  0
    4.6240   -2.6550    1.9770 O   0  0  0  0  0  0  0  0  0  0  0  0
    4.0970   -1.7370    1.3740 C   0  0  0  0  0  0  0  0  0  0  0  0
    3.0670   -2.0230    0.4470 C   0  0  0  0  0  0  0  0  0  0  0  0
    2.9070    0.3700    0.0180 C   0  0  0  0  0  0  0  0  0  0  0  0
    1.3290    1.2500   -1.5510 O   0  0  0  0  0  0  0  0  0  0  0  0
    0.8630    2.3910   -2.2750 C   0  0  0  0  0  0  0  0  0  0  0  0
    2.7780    2.7370   -0.3940 C   0  0  0  0  0  0  0  0  0  0  0  0
    4.3760    1.8900    1.1900 C   0  0  0  0  0  0  0  0  0  0  0  0
    1.3770   -1.2860   -1.2110 C   0  0  0  0  0  0  0  0  0  0  0  0
    1.6210   -1.3210   -2.4000 O   0  0  0  0  0  0  0  0  0  0  0  0
    0.1200   -1.5000   -0.7730 N   0  0  0  0  0  0  0  0  0  0  0  0
   -2.6300   -0.6320   -0.5330 O   0  0  0  0  0  0  0  0  0  0  0  0
   -4.2520    0.7440    0.5420 C   0  0  0  0  0  0  0  0  0  0  0  0
   -3.4420    1.8280    0.4030 O   0  0  0  0  0  0  0  0  0  0  0  0
   -3.9280    3.0710    0.9120 C   0  0  0  0  0  0  0  0  0  0  0  0
   -6.3110   -0.2260    1.2960 C   0  0  0  0  0  0  0  0  0  0  0  0
   -5.4880    0.8760    1.1550 C   0  0  0  0  0  0  0  0  0  0  0  0
    5.2200   -0.3210    2.2460 H   0  0  0  0  0  0  0  0  0  0  0  0
   -6.5510   -2.3190    0.9330 H   0  0  0  0  0  0  0  0  0  0  0  0
   -4.3560   -2.5650   -0.1530 H   0  0  0  0  0  0  0  0  0  0  0  0
   -3.0430   -2.3020   -1.6790 H   0  0  0  0  0  0  0  0  0  0  0  0
   -2.1970   -2.6140   -0.1440 H   0  0  0  0  0  0  0  0  0  0  0  0
   -0.7040   -2.8490   -2.1520 H   0  0  0  0  0  0  0  0  0  0  0  0
   -0.9840   -1.1300   -2.5180 H   0  0  0  0  0  0  0  0  0  0  0  0
    4.1400    3.9540    0.7150 H   0  0  0  0  0  0  0  0  0  0  0  0
    2.7570   -3.0440    0.2810 H   0  0  0  0  0  0  0  0  0  0  0  0
    1.6740    2.7900   -2.8850 H   0  0  0  0  0  0  0  0  0  0  0  0
    0.0340    2.0980   -2.9190 H   0  0  0  0  0  0  0  0  0  0  0  0
    0.5260    3.1540   -1.5730 H   0  0  0  0  0  0  0  0  0  0  0  0
    2.3350    3.5770   -0.9080 H   0  0  0  0  0  0  0  0  0  0  0  0
    5.1680    2.0690    1.9020 H   0  0  0  0  0  0  0  0  0  0  0  0
   -0.0880   -1.4080    0.1690 H   0  0  0  0  0  0  0  0  0  0  0  0
   -4.8570    3.3330    0.4060 H   0  0  0  0  0  0  0  0  0  0  0  0
   -4.1120    2.9790    1.9830 H   0  0  0  0  0  0  0  0  0  0  0  0
   -3.1860    3.8510    0.7370 H   0  0  0  0  0  0  0  0  0  0  0  0
   -7.2750   -0.1220    1.7690 H   0  0  0  0  0  0  0  0  0  0  0  0
   -5.8080    1.8390    1.5230 H   0  0  0  0  0  0  0  0  0  0  0  0
 11 12  2  0  0  0  0
  1 12  1  0  0  0  0
 12 13  1  0  0  0  0
  1  8  1  0  0  0  0
  7 13  2  0  0  0  0
  8 18  2  0  0  0  0
  8 14  1  0  0  0  0
  9 18  1  0  0  0  0
  7 14  1  0  0  0  0
  7 19  1  0  0  0  0
 10 14  2  0  0  0  0
 19 20  2  0  0  0  0
 19 21  1  0  0  0  0
  9 17  2  0  0  0  0
  6 21  1  0  0  0  0
 10 17  1  0  0  0  0
 10 15  1  0  0  0  0
  2  3  2  0  0  0  0
  3  4  1  0  0  0  0
  2 26  1  0  0  0  0
  5  6  1  0  0  0  0
 15 16  1  0  0  0  0
  5 22  1  0  0  0  0
  4 22  1  0  0  0  0
  4 23  2  0  0  0  0
 26 27  2  0  0  0  0
 23 27  1  0  0  0  0
 23 24  1  0  0  0  0
 24 25  1  0  0  0  0
  1 28  1  0  0  0  0
  2 29  1  0  0  0  0
  3 30  1  0  0  0  0
  5 31  1  0  0  0  0
  5 32  1  0  0  0  0
  6 33  1  0  0  0  0
  6 34  1  0  0  0  0
  9 35  1  0  0  0  0
 13 36  1  0  0  0  0
 16 37  1  0  0  0  0
 16 38  1  0  0  0  0
 16 39  1  0  0  0  0
 17 40  1  0  0  0  0
 18 41  1  0  0  0  0
 21 42  1  0  0  0  0
 25 43  1  0  0  0  0
 25 44  1  0  0  0  0
 25 45  1  0  0  0  0
 26 46  1  0  0  0  0
 27 47  1  0  0  0  0
M  END
> <OPENEYE_ISO_SMILES>
COc1ccccc1OCCNC(=O)c2cc(=O)[nH]c3c2c(ccc3)OC

> <OPENEYE_INCHI>
InChI=1S/C20H20N2O5/c1-25-15-7-3-4-8-16(15)27-11-10-21-20(24)13-12-18(23)22-14-6-5-9-17(26-2)19(13)14/h3-9,12H,10-11H2,1-2H3,(H,21,24)(H,22,23)

> <OPENEYE_INCHIKEY>
NXFNSWGPJUOQPY-UHFFFAOYSA-N

> <FORMULA>
C20H20N2O5

$$$$
