N4L
  -OEChem-05102419323D

 46 48  0     0  0  0  0  0  0999 V2000
    4.5100   -0.1710    1.6010 N   0  0  0  0  0  0  0  0  0  0  0  0
   -5.7930   -1.3290    0.9900 C   0  0  0  0  0  0  0  0  0  0  0  0
   -4.5890   -1.4960    0.3310 C   0  0  0  0  0  0  0  0  0  0  0  0
   -3.8090   -0.3930    0.0230 C   0  0  0  0  0  0  0  0  0  0  0  0
   -2.2460   -1.8920   -0.9600 C   0  0  0  0  0  0  0  0  0  0  0  0
   -0.8960   -1.8740   -1.6790 C   0  0  0  0  0  0  0  0  0  0  0  0
    2.4850   -0.9180   -0.2220 C   0  0  0  0  0  0  0  0  0  0  0  0
    4.0020    0.7910    0.7540 C   0  0  0  0  0  0  0  0  0  0  0  0
    3.9670    3.0480   -0.0520 C   0  0  0  0  0  0  0  0  0  0  0  0
    2.4790    1.4450   -1.0180 C   0  0  0  0  0  0  0  0  0  0  0  0
    4.5340   -2.2610    2.3330 O   0  0  0  0  0  0  0  0  0  0  0  0
    4.0610   -1.4380    1.5690 C   0  0  0  0  0  0  0  0  0  0  0  0
    3.0140   -1.8420    0.6330 C   0  0  0  0  0  0  0  0  0  0  0  0
    2.9890    0.4630   -0.1640 C   0  0  0  0  0  0  0  0  0  0  0  0
    1.3930    1.0990   -2.0040 C   0  0  0  0  0  0  0  0  0  0  0  0
    2.9680    2.7190   -0.9570 C   0  0  0  0  0  0  0  0  0  0  0  0
    4.4850    2.0970    0.8000 C   0  0  0  0  0  0  0  0  0  0  0  0
    1.4180   -1.2960   -1.1800 C   0  0  0  0  0  0  0  0  0  0  0  0
    1.6950   -1.5160   -2.3420 O   0  0  0  0  0  0  0  0  0  0  0  0
    0.1410   -1.3950   -0.7620 N   0  0  0  0  0  0  0  0  0  0  0  0
   -2.6250   -0.5550   -0.6260 O   0  0  0  0  0  0  0  0  0  0  0  0
   -4.2410    0.8810    0.3780 C   0  0  0  0  0  0  0  0  0  0  0  0
   -3.4790    1.9670    0.0770 O   0  0  0  0  0  0  0  0  0  0  0  0
   -3.9850    3.2440    0.4730 C   0  0  0  0  0  0  0  0  0  0  0  0
   -6.2220   -0.0630    1.3430 C   0  0  0  0  0  0  0  0  0  0  0  0
   -5.4490    1.0410    1.0380 C   0  0  0  0  0  0  0  0  0  0  0  0
    5.2090    0.0700    2.2290 H   0  0  0  0  0  0  0  0  0  0  0  0
   -6.4020   -2.1900    1.2250 H   0  0  0  0  0  0  0  0  0  0  0  0
   -4.2560   -2.4860    0.0560 H   0  0  0  0  0  0  0  0  0  0  0  0
   -3.0000   -2.3310   -1.6130 H   0  0  0  0  0  0  0  0  0  0  0  0
   -2.1640   -2.4850   -0.0490 H   0  0  0  0  0  0  0  0  0  0  0  0
   -0.6490   -2.8820   -2.0130 H   0  0  0  0  0  0  0  0  0  0  0  0
   -0.9520   -1.2100   -2.5420 H   0  0  0  0  0  0  0  0  0  0  0  0
    4.3430    4.0600   -0.0150 H   0  0  0  0  0  0  0  0  0  0  0  0
    2.6620   -2.8620    0.6180 H   0  0  0  0  0  0  0  0  0  0  0  0
    1.8360    0.6240   -2.8800 H   0  0  0  0  0  0  0  0  0  0  0  0
    0.6850    0.4130   -1.5390 H   0  0  0  0  0  0  0  0  0  0  0  0
    0.8740    2.0080   -2.3070 H   0  0  0  0  0  0  0  0  0  0  0  0
    2.5720    3.4770   -1.6170 H   0  0  0  0  0  0  0  0  0  0  0  0
    5.2620    2.3620    1.5010 H   0  0  0  0  0  0  0  0  0  0  0  0
   -0.0920   -1.1500    0.1470 H   0  0  0  0  0  0  0  0  0  0  0  0
   -3.2830    4.0220    0.1730 H   0  0  0  0  0  0  0  0  0  0  0  0
   -4.9470    3.4190   -0.0090 H   0  0  0  0  0  0  0  0  0  0  0  0
   -4.1120    3.2660    1.5550 H   0  0  0  0  0  0  0  0  0  0  0  0
   -7.1630    0.0630    1.8570 H   0  0  0  0  0  0  0  0  0  0  0  0
   -5.7860    2.0290    1.3150 H   0  0  0  0  0  0  0  0  0  0  0  0
 11 12  2  0  0  0  0
  1 12  1  0  0  0  0
 12 13  1  0  0  0  0
  1  8  1  0  0  0  0
  7 13  2  0  0  0  0
  8 17  2  0  0  0  0
  8 14  1  0  0  0  0
  7 14  1  0  0  0  0
  7 18  1  0  0  0  0
  9 17  1  0  0  0  0
 10 14  2  0  0  0  0
 18 19  2  0  0  0  0
 18 20  1  0  0  0  0
  9 16  2  0  0  0  0
  6 20  1  0  0  0  0
 10 16  1  0  0  0  0
 10 15  1  0  0  0  0
  2  3  2  0  0  0  0
  2 25  1  0  0  0  0
  5  6  1  0  0  0  0
  3  4  1  0  0  0  0
  5 21  1  0  0  0  0
 25 26  2  0  0  0  0
  4 21  1  0  0  0  0
  4 22  2  0  0  0  0
 22 26  1  0  0  0  0
 22 23  1  0  0  0  0
 23 24  1  0  0  0  0
  1 27  1  0  0  0  0
  2 28  1  0  0  0  0
  3 29  1  0  0  0  0
  5 30  1  0  0  0  0
  5 31  1  0  0  0  0
  6 32  1  0  0  0  0
  6 33  1  0  0  0  0
  9 34  1  0  0  0  0
 13 35  1  0  0  0  0
 15 36  1  0  0  0  0
 15 37  1  0  0  0  0
 15 38  1  0  0  0  0
 16 39  1  0  0  0  0
 17 40  1  0  0  0  0
 20 41  1  0  0  0  0
 24 42  1  0  0  0  0
 24 43  1  0  0  0  0
 24 44  1  0  0  0  0
 25 45  1  0  0  0  0
 26 46  1  0  0  0  0
M  END
> <OPENEYE_ISO_SMILES>
Cc1cccc2c1c(cc(=O)[nH]2)C(=O)NCCOc3ccccc3OC

> <OPENEYE_INCHI>
InChI=1S/C20H20N2O4/c1-13-6-5-7-15-19(13)14(12-18(23)22-15)20(24)21-10-11-26-17-9-4-3-8-16(17)25-2/h3-9,12H,10-11H2,1-2H3,(H,21,24)(H,22,23)

> <OPENEYE_INCHIKEY>
FVKXXNFROYGAEF-UHFFFAOYSA-N

> <FORMULA>
C20H20N2O4

$$$$
