N5L
  -OEChem-05102419323D

 33 34  0     0  0  0  0  0  0999 V2000
   -3.4860    0.7060   -1.9420 N   0  0  0  0  0  0  0  0  0  0  0  0
   -2.4900    0.8790   -1.0960 C   0  0  0  0  0  0  0  0  0  0  0  0
   -2.5440    0.3470    0.1860 C   0  0  0  0  0  0  0  0  0  0  0  0
   -0.2150    0.5710    0.6180 C   0  0  0  0  0  0  0  0  0  0  0  0
    0.9350    0.6740    1.5860 C   0  0  0  0  0  0  0  0  0  0  0  0
    2.2340    0.6960    0.8230 C   0  0  0  0  0  0  0  0  0  0  0  0
    3.9690    1.9210   -0.2830 C   0  0  0  0  0  0  0  0  0  0  0  0
    2.8830   -0.4890    0.5280 C   0  0  0  0  0  0  0  0  0  0  0  0
    4.8900   -1.9570   -0.5430 Cl  0  0  0  0  0  0  0  0  0  0  0  0
    4.0750   -0.4690   -0.1730 C   0  0  0  0  0  0  0  0  0  0  0  0
    4.6180    0.7370   -0.5780 C   0  0  0  0  0  0  0  0  0  0  0  0
    2.7740    1.9000    0.4120 C   0  0  0  0  0  0  0  0  0  0  0  0
   -0.0010    0.5210   -0.5750 O   0  0  0  0  0  0  0  0  0  0  0  0
   -1.4810    0.5360    1.0770 N   0  0  0  0  0  0  0  0  0  0  0  0
   -3.6690   -0.3750    0.5720 C   0  0  0  0  0  0  0  0  0  0  0  0
   -3.7690   -0.9680    1.9540 C   0  0  0  0  0  0  0  0  0  0  0  0
   -4.5680    0.0290   -1.6130 C   0  0  0  0  0  0  0  0  0  0  0  0
   -4.6990   -0.5340   -0.3490 C   0  0  0  0  0  0  0  0  0  0  0  0
   -5.8490   -1.2510   -0.0090 N   0  0  0  0  0  0  0  0  0  0  0  0
   -1.6200    1.4400   -1.4050 H   0  0  0  0  0  0  0  0  0  0  0  0
    0.8400    1.5910    2.1680 H   0  0  0  0  0  0  0  0  0  0  0  0
    0.9230   -0.1850    2.2570 H   0  0  0  0  0  0  0  0  0  0  0  0
    4.3930    2.8630   -0.6000 H   0  0  0  0  0  0  0  0  0  0  0  0
    2.4590   -1.4300    0.8450 H   0  0  0  0  0  0  0  0  0  0  0  0
    5.5490    0.7540   -1.1260 H   0  0  0  0  0  0  0  0  0  0  0  0
    2.2650    2.8250    0.6390 H   0  0  0  0  0  0  0  0  0  0  0  0
   -1.6570    0.6410    2.0250 H   0  0  0  0  0  0  0  0  0  0  0  0
   -4.2320   -0.2460    2.6270 H   0  0  0  0  0  0  0  0  0  0  0  0
   -4.3770   -1.8720    1.9180 H   0  0  0  0  0  0  0  0  0  0  0  0
   -2.7720   -1.2150    2.3170 H   0  0  0  0  0  0  0  0  0  0  0  0
   -5.3630   -0.0900   -2.3350 H   0  0  0  0  0  0  0  0  0  0  0  0
   -6.5630   -1.3590   -0.6570 H   0  0  0  0  0  0  0  0  0  0  0  0
   -5.9330   -1.6410    0.8750 H   0  0  0  0  0  0  0  0  0  0  0  0
  1 17  2  0  0  0  0
  1  2  1  0  0  0  0
 17 18  1  0  0  0  0
  2  3  2  0  0  0  0
 18 19  1  0  0  0  0
 15 18  2  0  0  0  0
  3 15  1  0  0  0  0
  3 14  1  0  0  0  0
 15 16  1  0  0  0  0
  4 14  1  0  0  0  0
  9 10  1  0  0  0  0
  4 13  2  0  0  0  0
  4  5  1  0  0  0  0
  8 10  2  0  0  0  0
  6  8  1  0  0  0  0
 10 11  1  0  0  0  0
  5  6  1  0  0  0  0
  6 12  2  0  0  0  0
  7 11  2  0  0  0  0
  7 12  1  0  0  0  0
  2 20  1  0  0  0  0
  5 21  1  0  0  0  0
  5 22  1  0  0  0  0
  7 23  1  0  0  0  0
  8 24  1  0  0  0  0
 11 25  1  0  0  0  0
 12 26  1  0  0  0  0
 14 27  1  0  0  0  0
 16 28  1  0  0  0  0
 16 29  1  0  0  0  0
 16 30  1  0  0  0  0
 17 31  1  0  0  0  0
 19 32  1  0  0  0  0
 19 33  1  0  0  0  0
M  END
> <OPENEYE_ISO_SMILES>
Cc1c(cncc1NC(=O)Cc2cccc(c2)Cl)N

> <OPENEYE_INCHI>
InChI=1S/C14H14ClN3O/c1-9-12(16)7-17-8-13(9)18-14(19)6-10-3-2-4-11(15)5-10/h2-5,7-8H,6,16H2,1H3,(H,18,19)

> <OPENEYE_INCHIKEY>
YFDTZFVQPPSTPK-UHFFFAOYSA-N

> <FORMULA>
C14H14ClN3O

$$$$
