N9I
  -OEChem-05102419323D

 40 42  0     0  0  0  0  0  0999 V2000
   -0.4410    0.4200    0.7440 N   0  0  0  0  0  0  0  0  0  0  0  0
    4.0010   -0.4920    1.2520 C   0  0  0  0  0  0  0  0  0  0  0  0
    3.2790    0.4180    0.5030 C   0  0  0  0  0  0  0  0  0  0  0  0
    1.9620    0.9470    1.0070 C   0  0  0  0  0  0  0  0  0  0  0  0
    0.8360    0.1280    0.4300 C   0  0  0  0  0  0  0  0  0  0  0  0
   -1.4780   -0.4090    0.3020 C   0  0  0  0  0  0  0  0  0  0  0  0
   -2.2480   -2.5590   -0.4180 C   0  0  0  0  0  0  0  0  0  0  0  0
   -5.1830   -0.1960   -0.4800 C   0  0  0  0  0  0  0  0  0  0  0  0
   -2.9960    1.5590    0.4780 C   0  0  0  0  0  0  0  0  0  0  0  0
    1.0810   -0.7960   -0.3180 O   0  0  0  0  0  0  0  0  0  0  0  0
    5.1570   -0.9560    0.8200 N   0  0  0  0  0  0  0  0  0  0  0  0
    5.6690   -0.5750   -0.3340 C   0  0  0  0  0  0  0  0  0  0  0  0
    5.0040    0.3320   -1.1380 C   0  0  0  0  0  0  0  0  0  0  0  0
    3.7830    0.8380   -0.7190 C   0  0  0  0  0  0  0  0  0  0  0  0
    3.0270    1.8280   -1.5660 C   0  0  0  0  0  0  0  0  0  0  0  0
   -2.7630    0.1080    0.1480 C   0  0  0  0  0  0  0  0  0  0  0  0
   -4.2530    2.0250   -0.1160 N   0  0  0  0  0  0  0  0  0  0  0  0
   -5.3580    1.1290    0.2620 C   0  0  0  0  0  0  0  0  0  0  0  0
   -3.7790   -0.7110   -0.2910 C   0  0  0  0  0  0  0  0  0  0  0  0
   -3.5210   -2.0440   -0.5720 C   0  0  0  0  0  0  0  0  0  0  0  0
   -1.2220   -1.7410    0.0130 C   0  0  0  0  0  0  0  0  0  0  0  0
   -0.6410    1.2040    1.2800 H   0  0  0  0  0  0  0  0  0  0  0  0
    3.6150   -0.8240    2.2050 H   0  0  0  0  0  0  0  0  0  0  0  0
    1.9370    0.8830    2.0950 H   0  0  0  0  0  0  0  0  0  0  0  0
    1.8470    1.9870    0.7020 H   0  0  0  0  0  0  0  0  0  0  0  0
   -2.0550   -3.5980   -0.6380 H   0  0  0  0  0  0  0  0  0  0  0  0
   -5.8920   -0.9260   -0.0880 H   0  0  0  0  0  0  0  0  0  0  0  0
   -5.3730   -0.0440   -1.5420 H   0  0  0  0  0  0  0  0  0  0  0  0
   -3.0430    1.6790    1.5600 H   0  0  0  0  0  0  0  0  0  0  0  0
   -2.1710    2.1540    0.0850 H   0  0  0  0  0  0  0  0  0  0  0  0
    6.6190   -0.9760   -0.6550 H   0  0  0  0  0  0  0  0  0  0  0  0
    5.4290    0.6400   -2.0820 H   0  0  0  0  0  0  0  0  0  0  0  0
    3.3330    2.8400   -1.3030 H   0  0  0  0  0  0  0  0  0  0  0  0
    3.2420    1.6450   -2.6190 H   0  0  0  0  0  0  0  0  0  0  0  0
    1.9570    1.7150   -1.3900 H   0  0  0  0  0  0  0  0  0  0  0  0
   -4.4500    2.9770    0.1550 H   0  0  0  0  0  0  0  0  0  0  0  0
   -6.3090    1.5830   -0.0170 H   0  0  0  0  0  0  0  0  0  0  0  0
   -5.3340    0.9530    1.3380 H   0  0  0  0  0  0  0  0  0  0  0  0
   -4.3210   -2.6860   -0.9090 H   0  0  0  0  0  0  0  0  0  0  0  0
   -0.2260   -2.1390    0.1330 H   0  0  0  0  0  0  0  0  0  0  0  0
 11 12  2  0  0  0  0
  2 11  1  0  0  0  0
 12 13  1  0  0  0  0
  2  3  2  0  0  0  0
 13 14  2  0  0  0  0
  3 14  1  0  0  0  0
  3  4  1  0  0  0  0
 14 15  1  0  0  0  0
  5 10  2  0  0  0  0
  4  5  1  0  0  0  0
  1  5  1  0  0  0  0
  7 21  2  0  0  0  0
  6 21  1  0  0  0  0
  7 20  1  0  0  0  0
  1  6  1  0  0  0  0
  6 16  2  0  0  0  0
 19 20  2  0  0  0  0
 16 19  1  0  0  0  0
  9 16  1  0  0  0  0
  8 19  1  0  0  0  0
  9 17  1  0  0  0  0
  8 18  1  0  0  0  0
 17 18  1  0  0  0  0
  1 22  1  0  0  0  0
  2 23  1  0  0  0  0
  4 24  1  0  0  0  0
  4 25  1  0  0  0  0
  7 26  1  0  0  0  0
  8 27  1  0  0  0  0
  8 28  1  0  0  0  0
  9 29  1  0  0  0  0
  9 30  1  0  0  0  0
 12 31  1  0  0  0  0
 13 32  1  0  0  0  0
 15 33  1  0  0  0  0
 15 34  1  0  0  0  0
 15 35  1  0  0  0  0
 17 36  1  0  0  0  0
 18 37  1  0  0  0  0
 18 38  1  0  0  0  0
 20 39  1  0  0  0  0
 21 40  1  0  0  0  0
M  END
> <OPENEYE_ISO_SMILES>
Cc1ccncc1CC(=O)Nc2cccc3c2CNCC3

> <OPENEYE_INCHI>
InChI=1S/C17H19N3O/c1-12-5-7-18-10-14(12)9-17(21)20-16-4-2-3-13-6-8-19-11-15(13)16/h2-5,7,10,19H,6,8-9,11H2,1H3,(H,20,21)

> <OPENEYE_INCHIKEY>
IICDEQKQIDLVOQ-UHFFFAOYSA-N

> <FORMULA>
C17H19N3O

$$$$
