NB0
  -OEChem-05102419323D

 44 47  0     0  0  0  0  0  0999 V2000
    0.0770   -1.2760   -0.9220 N   0  0  0  0  0  0  0  0  0  0  0  0
   -3.5690    1.5600    0.0410 C   0  0  0  0  0  0  0  0  0  0  0  0
   -3.6240    0.1810    0.1840 C   0  0  0  0  0  0  0  0  0  0  0  0
   -1.3630   -0.2250    0.7410 C   0  0  0  0  0  0  0  0  0  0  0  0
   -0.2160   -1.2160    0.5180 C   0  0  0  0  0  0  0  0  0  0  0  0
   -1.0400   -1.5120   -1.8500 C   0  0  0  0  0  0  0  0  0  0  0  0
    1.3340   -1.1150   -1.3800 C   0  0  0  0  0  0  0  0  0  0  0  0
    4.0960   -1.3590    1.2430 C   0  0  0  0  0  0  0  0  0  0  0  0
    4.3770    2.2320    0.7120 C   0  0  0  0  0  0  0  0  0  0  0  0
    2.7700    2.9240   -0.9360 C   0  0  0  0  0  0  0  0  0  0  0  0
    4.6230   -2.2170    1.9290 O   0  0  0  0  0  0  0  0  0  0  0  0
    3.0210   -1.7310    0.3260 C   0  0  0  0  0  0  0  0  0  0  0  0
    4.5080   -0.0840    1.3450 N   0  0  0  0  0  0  0  0  0  0  0  0
    3.9340    0.9180    0.5910 C   0  0  0  0  0  0  0  0  0  0  0  0
    2.8960    0.6200   -0.3090 C   0  0  0  0  0  0  0  0  0  0  0  0
    2.3200    1.6410   -1.0700 C   0  0  0  0  0  0  0  0  0  0  0  0
    3.7950    3.2230   -0.0480 C   0  0  0  0  0  0  0  0  0  0  0  0
    2.4270   -0.7680   -0.4390 C   0  0  0  0  0  0  0  0  0  0  0  0
    1.5720   -1.2520   -2.5630 O   0  0  0  0  0  0  0  0  0  0  0  0
   -2.1550   -0.5090   -1.5340 C   0  0  0  0  0  0  0  0  0  0  0  0
   -2.5010   -0.6000   -0.1090 N   0  0  0  0  0  0  0  0  0  0  0  0
   -4.7980   -0.4240    0.6210 C   0  0  0  0  0  0  0  0  0  0  0  0
   -4.8560   -1.7660    0.7620 F   0  0  0  0  0  0  0  0  0  0  0  0
   -4.6800    2.3290    0.3320 C   0  0  0  0  0  0  0  0  0  0  0  0
   -5.8460    1.7260    0.7660 C   0  0  0  0  0  0  0  0  0  0  0  0
   -5.9060    0.3520    0.9100 C   0  0  0  0  0  0  0  0  0  0  0  0
   -2.6570    2.0330   -0.2940 H   0  0  0  0  0  0  0  0  0  0  0  0
   -1.6670   -0.2500    1.7870 H   0  0  0  0  0  0  0  0  0  0  0  0
   -1.0310    0.7800    0.4820 H   0  0  0  0  0  0  0  0  0  0  0  0
   -0.5110   -2.2040    0.8730 H   0  0  0  0  0  0  0  0  0  0  0  0
    0.6690   -0.8790    1.0580 H   0  0  0  0  0  0  0  0  0  0  0  0
   -0.7000   -1.3700   -2.8750 H   0  0  0  0  0  0  0  0  0  0  0  0
   -1.4120   -2.5290   -1.7240 H   0  0  0  0  0  0  0  0  0  0  0  0
    5.1740    2.4750    1.3990 H   0  0  0  0  0  0  0  0  0  0  0  0
    2.3240    3.7130   -1.5250 H   0  0  0  0  0  0  0  0  0  0  0  0
    2.6990   -2.7600    0.2530 H   0  0  0  0  0  0  0  0  0  0  0  0
    5.2230    0.1360    1.9620 H   0  0  0  0  0  0  0  0  0  0  0  0
    1.5220    1.4170   -1.7620 H   0  0  0  0  0  0  0  0  0  0  0  0
    4.1390    4.2420    0.0470 H   0  0  0  0  0  0  0  0  0  0  0  0
   -1.8120    0.5000   -1.7610 H   0  0  0  0  0  0  0  0  0  0  0  0
   -3.0330   -0.7400   -2.1370 H   0  0  0  0  0  0  0  0  0  0  0  0
   -4.6370    3.4020    0.2210 H   0  0  0  0  0  0  0  0  0  0  0  0
   -6.7120    2.3300    0.9920 H   0  0  0  0  0  0  0  0  0  0  0  0
   -6.8180   -0.1160    1.2490 H   0  0  0  0  0  0  0  0  0  0  0  0
  8 11  2  0  0  0  0
  8 13  1  0  0  0  0
  8 12  1  0  0  0  0
 13 14  1  0  0  0  0
 12 18  2  0  0  0  0
  9 14  2  0  0  0  0
 14 15  1  0  0  0  0
  9 17  1  0  0  0  0
 15 18  1  0  0  0  0
  7 18  1  0  0  0  0
 15 16  2  0  0  0  0
  7 19  2  0  0  0  0
  1  7  1  0  0  0  0
 10 17  2  0  0  0  0
 10 16  1  0  0  0  0
  1  6  1  0  0  0  0
  1  5  1  0  0  0  0
  6 20  1  0  0  0  0
 20 21  1  0  0  0  0
  4  5  1  0  0  0  0
  4 21  1  0  0  0  0
  2 24  2  0  0  0  0
  2  3  1  0  0  0  0
  3 21  1  0  0  0  0
 24 25  1  0  0  0  0
  3 22  2  0  0  0  0
 25 26  2  0  0  0  0
 22 26  1  0  0  0  0
 22 23  1  0  0  0  0
  2 27  1  0  0  0  0
  4 28  1  0  0  0  0
  4 29  1  0  0  0  0
  5 30  1  0  0  0  0
  5 31  1  0  0  0  0
  6 32  1  0  0  0  0
  6 33  1  0  0  0  0
  9 34  1  0  0  0  0
 10 35  1  0  0  0  0
 12 36  1  0  0  0  0
 13 37  1  0  0  0  0
 16 38  1  0  0  0  0
 17 39  1  0  0  0  0
 20 40  1  0  0  0  0
 20 41  1  0  0  0  0
 24 42  1  0  0  0  0
 25 43  1  0  0  0  0
 26 44  1  0  0  0  0
M  END
> <OPENEYE_ISO_SMILES>
c1ccc2c(c1)c(cc(=O)[nH]2)C(=O)N3CCN(CC3)c4ccccc4F

> <OPENEYE_INCHI>
InChI=1S/C20H18FN3O2/c21-16-6-2-4-8-18(16)23-9-11-24(12-10-23)20(26)15-13-19(25)22-17-7-3-1-5-14(15)17/h1-8,13H,9-12H2,(H,22,25)

> <OPENEYE_INCHIKEY>
ONQQLMKVMVPYKH-UHFFFAOYSA-N

> <FORMULA>
C20H18FN3O2

$$$$
