NB6
  -OEChem-05102419323D

 31 32  0     0  0  0  0  0  0999 V2000
    2.6040   -0.3180    1.0620 N   0  0  0  0  0  0  0  0  0  0  0  0
    3.5550   -0.4050   -1.1610 C   0  0  0  0  0  0  0  0  0  0  0  0
    3.6330   -0.0070    0.1670 C   0  0  0  0  0  0  0  0  0  0  0  0
    1.3550   -0.5390    0.6050 C   0  0  0  0  0  0  0  0  0  0  0  0
    0.2760   -0.9980    1.5510 C   0  0  0  0  0  0  0  0  0  0  0  0
   -1.0160   -1.1690    0.7940 C   0  0  0  0  0  0  0  0  0  0  0  0
   -2.5110   -2.5480   -0.4700 C   0  0  0  0  0  0  0  0  0  0  0  0
   -1.8910   -0.1060    0.6700 C   0  0  0  0  0  0  0  0  0  0  0  0
   -4.2730    1.1900   -0.1960 Br  0  0  0  0  0  0  0  0  0  0  0  0
   -3.0760   -0.2640   -0.0250 C   0  0  0  0  0  0  0  0  0  0  0  0
   -3.3860   -1.4860   -0.5950 C   0  0  0  0  0  0  0  0  0  0  0  0
   -1.3230   -2.3880    0.2190 C   0  0  0  0  0  0  0  0  0  0  0  0
    1.1010   -0.3680   -0.5690 O   0  0  0  0  0  0  0  0  0  0  0  0
    4.7500    0.7060    0.5940 C   0  0  0  0  0  0  0  0  0  0  0  0
    4.8770    1.1570    2.0260 C   0  0  0  0  0  0  0  0  0  0  0  0
    4.5240   -0.1180   -2.0070 N   0  0  0  0  0  0  0  0  0  0  0  0
    5.5970    0.5510   -1.6330 C   0  0  0  0  0  0  0  0  0  0  0  0
    5.7420    0.9900   -0.3300 C   0  0  0  0  0  0  0  0  0  0  0  0
    2.7900   -0.3790    2.0130 H   0  0  0  0  0  0  0  0  0  0  0  0
    2.6930   -0.9590   -1.5040 H   0  0  0  0  0  0  0  0  0  0  0  0
    0.5650   -1.9490    1.9980 H   0  0  0  0  0  0  0  0  0  0  0  0
    0.1410   -0.2540    2.3360 H   0  0  0  0  0  0  0  0  0  0  0  0
   -2.7520   -3.5020   -0.9160 H   0  0  0  0  0  0  0  0  0  0  0  0
   -1.6490    0.8470    1.1160 H   0  0  0  0  0  0  0  0  0  0  0  0
   -4.3110   -1.6090   -1.1380 H   0  0  0  0  0  0  0  0  0  0  0  0
   -0.6370   -3.2170    0.3120 H   0  0  0  0  0  0  0  0  0  0  0  0
    5.3800    0.3840    2.6070 H   0  0  0  0  0  0  0  0  0  0  0  0
    5.4580    2.0790    2.0670 H   0  0  0  0  0  0  0  0  0  0  0  0
    3.8850    1.3350    2.4400 H   0  0  0  0  0  0  0  0  0  0  0  0
    6.3700    0.7660   -2.3570 H   0  0  0  0  0  0  0  0  0  0  0  0
    6.6250    1.5380   -0.0330 H   0  0  0  0  0  0  0  0  0  0  0  0
 16 17  2  0  0  0  0
  2 16  1  0  0  0  0
 17 18  1  0  0  0  0
  2  3  2  0  0  0  0
 14 18  2  0  0  0  0
  3 14  1  0  0  0  0
  1  3  1  0  0  0  0
 14 15  1  0  0  0  0
  1  4  1  0  0  0  0
  4 13  2  0  0  0  0
  9 10  1  0  0  0  0
  4  5  1  0  0  0  0
  8 10  2  0  0  0  0
  6  8  1  0  0  0  0
 10 11  1  0  0  0  0
  5  6  1  0  0  0  0
  6 12  2  0  0  0  0
  7 11  2  0  0  0  0
  7 12  1  0  0  0  0
  1 19  1  0  0  0  0
  2 20  1  0  0  0  0
  5 21  1  0  0  0  0
  5 22  1  0  0  0  0
  7 23  1  0  0  0  0
  8 24  1  0  0  0  0
 11 25  1  0  0  0  0
 12 26  1  0  0  0  0
 15 27  1  0  0  0  0
 15 28  1  0  0  0  0
 15 29  1  0  0  0  0
 17 30  1  0  0  0  0
 18 31  1  0  0  0  0
M  END
> <OPENEYE_ISO_SMILES>
Cc1ccncc1NC(=O)Cc2cccc(c2)Br

> <OPENEYE_INCHI>
InChI=1S/C14H13BrN2O/c1-10-5-6-16-9-13(10)17-14(18)8-11-3-2-4-12(15)7-11/h2-7,9H,8H2,1H3,(H,17,18)

> <OPENEYE_INCHIKEY>
ZTLMWKAKNVXEJW-UHFFFAOYSA-N

> <FORMULA>
C14H13BrN2O

$$$$
