NDI
  -OEChem-05102419323D

 40 41  0     0  0  0  0  0  0999 V2000
   -1.4030    0.6180    0.5050 N   0  0  0  0  0  0  0  0  0  0  0  0
    4.3810   -1.7970    0.8090 N   0  0  0  0  0  0  0  0  0  0  0  0
   -0.1880    1.4220    0.3140 C   0  0  0  0  0  0  0  0  0  0  0  0
    1.0090    0.5100    0.2260 C   0  0  0  0  0  0  0  0  0  0  0  0
    3.3630    0.1960    0.0850 C   0  0  0  0  0  0  0  0  0  0  0  0
    3.3250   -1.0080    0.7750 C   0  0  0  0  0  0  0  0  0  0  0  0
    5.5050   -1.4800    0.1970 C   0  0  0  0  0  0  0  0  0  0  0  0
    4.5350    0.5610   -0.5730 C   0  0  0  0  0  0  0  0  0  0  0  0
   -3.7510    0.5890    1.1990 C   0  0  0  0  0  0  0  0  0  0  0  0
    0.8640   -0.6910    0.3130 O   0  0  0  0  0  0  0  0  0  0  0  0
    2.2400    1.0300    0.0500 N   0  0  0  0  0  0  0  0  0  0  0  0
    4.6210    1.8590   -1.3340 C   0  0  0  0  0  0  0  0  0  0  0  0
    5.6200   -0.2980   -0.5110 C   0  0  0  0  0  0  0  0  0  0  0  0
   -1.6740   -0.2140   -0.6750 C   0  0  0  0  0  0  0  0  0  0  0  0
   -2.8360   -1.1650   -0.3700 C   0  0  0  0  0  0  0  0  0  0  0  0
   -2.5530    1.4710    0.8310 C   0  0  0  0  0  0  0  0  0  0  0  0
   -3.9780   -0.3700    0.1060 N   0  0  0  0  0  0  0  0  0  0  0  0
   -5.2000   -0.5160   -0.4430 C   0  0  0  0  0  0  0  0  0  0  0  0
   -5.3900   -1.3720   -1.2810 O   0  0  0  0  0  0  0  0  0  0  0  0
   -6.3310    0.3850   -0.0170 C   0  0  0  0  0  0  0  0  0  0  0  0
   -0.2750    1.9980   -0.6070 H   0  0  0  0  0  0  0  0  0  0  0  0
   -0.0660    2.1010    1.1580 H   0  0  0  0  0  0  0  0  0  0  0  0
    2.4210   -1.3020    1.2890 H   0  0  0  0  0  0  0  0  0  0  0  0
    6.3470   -2.1540    0.2500 H   0  0  0  0  0  0  0  0  0  0  0  0
   -3.5390    0.0490    2.1210 H   0  0  0  0  0  0  0  0  0  0  0  0
   -4.6360    1.2110    1.3330 H   0  0  0  0  0  0  0  0  0  0  0  0
    2.3470    1.9820   -0.1010 H   0  0  0  0  0  0  0  0  0  0  0  0
    4.9700    2.6480   -0.6690 H   0  0  0  0  0  0  0  0  0  0  0  0
    5.3190    1.7480   -2.1640 H   0  0  0  0  0  0  0  0  0  0  0  0
    3.6350    2.1190   -1.7210 H   0  0  0  0  0  0  0  0  0  0  0  0
    6.5450   -0.0470   -1.0080 H   0  0  0  0  0  0  0  0  0  0  0  0
   -1.9390    0.4250   -1.5180 H   0  0  0  0  0  0  0  0  0  0  0  0
   -0.7850   -0.7940   -0.9240 H   0  0  0  0  0  0  0  0  0  0  0  0
   -3.1170   -1.7030   -1.2750 H   0  0  0  0  0  0  0  0  0  0  0  0
   -2.5360   -1.8730    0.4020 H   0  0  0  0  0  0  0  0  0  0  0  0
   -2.3020    2.1130    1.6750 H   0  0  0  0  0  0  0  0  0  0  0  0
   -2.8060    2.0870   -0.0320 H   0  0  0  0  0  0  0  0  0  0  0  0
   -5.9980    1.0230    0.8020 H   0  0  0  0  0  0  0  0  0  0  0  0
   -6.6380    1.0060   -0.8590 H   0  0  0  0  0  0  0  0  0  0  0  0
   -7.1730   -0.2210    0.3140 H   0  0  0  0  0  0  0  0  0  0  0  0
  2  7  2  0  0  0  0
  2  6  1  0  0  0  0
  7 13  1  0  0  0  0
  5  6  2  0  0  0  0
  8 13  2  0  0  0  0
  5  8  1  0  0  0  0
  5 11  1  0  0  0  0
  8 12  1  0  0  0  0
  4 10  2  0  0  0  0
  4 11  1  0  0  0  0
  3  4  1  0  0  0  0
 14 15  1  0  0  0  0
  1 14  1  0  0  0  0
  1  3  1  0  0  0  0
 15 17  1  0  0  0  0
  1 16  1  0  0  0  0
  9 17  1  0  0  0  0
 17 18  1  0  0  0  0
  9 16  1  0  0  0  0
 18 19  2  0  0  0  0
 18 20  1  0  0  0  0
  3 21  1  0  0  0  0
  3 22  1  0  0  0  0
  6 23  1  0  0  0  0
  7 24  1  0  0  0  0
  9 25  1  0  0  0  0
  9 26  1  0  0  0  0
 11 27  1  0  0  0  0
 12 28  1  0  0  0  0
 12 29  1  0  0  0  0
 12 30  1  0  0  0  0
 13 31  1  0  0  0  0
 14 32  1  0  0  0  0
 14 33  1  0  0  0  0
 15 34  1  0  0  0  0
 15 35  1  0  0  0  0
 16 36  1  0  0  0  0
 16 37  1  0  0  0  0
 20 38  1  0  0  0  0
 20 39  1  0  0  0  0
 20 40  1  0  0  0  0
M  END
> <OPENEYE_ISO_SMILES>
Cc1ccncc1NC(=O)CN2CCN(CC2)C(=O)C

> <OPENEYE_INCHI>
InChI=1S/C14H20N4O2/c1-11-3-4-15-9-13(11)16-14(20)10-17-5-7-18(8-6-17)12(2)19/h3-4,9H,5-8,10H2,1-2H3,(H,16,20)

> <OPENEYE_INCHIKEY>
YHXAYSKGSZLMHI-UHFFFAOYSA-N

> <FORMULA>
C14H20N4O2

$$$$
