NEL
  -OEChem-05102419323D

 32 34  0     0  0  0  0  0  0999 V2000
    5.6620   -0.7610    0.4090 N   0  0  0  0  0  0  0  0  0  0  0  0
   -2.4360    0.1550   -1.0450 C   0  0  0  0  0  0  0  0  0  0  0  0
   -1.1160   -0.2620   -1.6420 C   0  0  0  0  0  0  0  0  0  0  0  0
    0.0010    0.1130   -0.7020 C   0  0  0  0  0  0  0  0  0  0  0  0
    2.3210    0.2850   -0.2150 C   0  0  0  0  0  0  0  0  0  0  0  0
    2.1450    1.3920    0.5910 C   0  0  0  0  0  0  0  0  0  0  0  0
    4.3920    1.1970    1.4170 C   0  0  0  0  0  0  0  0  0  0  0  0
    3.5560   -0.3880   -0.2120 C   0  0  0  0  0  0  0  0  0  0  0  0
   -0.2500    0.6650    0.3480 O   0  0  0  0  0  0  0  0  0  0  0  0
   -2.9470    1.4120   -1.3090 C   0  0  0  0  0  0  0  0  0  0  0  0
   -4.1580    1.7950   -0.7630 C   0  0  0  0  0  0  0  0  0  0  0  0
   -4.8580    0.9210    0.0480 C   0  0  0  0  0  0  0  0  0  0  0  0
   -3.1380   -0.7220   -0.2390 C   0  0  0  0  0  0  0  0  0  0  0  0
   -4.3470   -0.3370    0.3120 C   0  0  0  0  0  0  0  0  0  0  0  0
   -5.2290   -1.4370    1.3240 Cl  0  0  0  0  0  0  0  0  0  0  0  0
    1.2780   -0.1640   -1.0290 N   0  0  0  0  0  0  0  0  0  0  0  0
    4.0480   -1.5260   -0.8930 C   0  0  0  0  0  0  0  0  0  0  0  0
    5.2790   -1.7320   -0.5250 N   0  0  0  0  0  0  0  0  0  0  0  0
    4.5960    0.0770    0.6130 C   0  0  0  0  0  0  0  0  0  0  0  0
    3.1780    1.8430    1.4030 C   0  0  0  0  0  0  0  0  0  0  0  0
    6.5290   -0.6960    0.8390 H   0  0  0  0  0  0  0  0  0  0  0  0
   -1.1130   -1.3410   -1.7980 H   0  0  0  0  0  0  0  0  0  0  0  0
   -0.9730    0.2440   -2.5970 H   0  0  0  0  0  0  0  0  0  0  0  0
    1.1970    1.9100    0.5920 H   0  0  0  0  0  0  0  0  0  0  0  0
    5.1880    1.5570    2.0520 H   0  0  0  0  0  0  0  0  0  0  0  0
   -2.4000    2.0950   -1.9420 H   0  0  0  0  0  0  0  0  0  0  0  0
   -4.5570    2.7770   -0.9690 H   0  0  0  0  0  0  0  0  0  0  0  0
   -5.8040    1.2210    0.4750 H   0  0  0  0  0  0  0  0  0  0  0  0
   -2.7380   -1.7040   -0.0330 H   0  0  0  0  0  0  0  0  0  0  0  0
    1.4740   -0.6760   -1.8300 H   0  0  0  0  0  0  0  0  0  0  0  0
    3.4930   -2.1260   -1.6000 H   0  0  0  0  0  0  0  0  0  0  0  0
    3.0260    2.7100    2.0280 H   0  0  0  0  0  0  0  0  0  0  0  0
  1 18  1  0  0  0  0
 17 18  2  0  0  0  0
  1 19  1  0  0  0  0
  8 17  1  0  0  0  0
  8 19  2  0  0  0  0
  7 19  1  0  0  0  0
  5  8  1  0  0  0  0
  7 20  2  0  0  0  0
  4  9  2  0  0  0  0
  5 16  1  0  0  0  0
  5  6  2  0  0  0  0
 14 15  1  0  0  0  0
  6 20  1  0  0  0  0
  4 16  1  0  0  0  0
  3  4  1  0  0  0  0
 13 14  2  0  0  0  0
  2 13  1  0  0  0  0
 12 14  1  0  0  0  0
  2  3  1  0  0  0  0
  2 10  2  0  0  0  0
 11 12  2  0  0  0  0
 10 11  1  0  0  0  0
  1 21  1  0  0  0  0
  3 22  1  0  0  0  0
  3 23  1  0  0  0  0
  6 24  1  0  0  0  0
  7 25  1  0  0  0  0
 10 26  1  0  0  0  0
 11 27  1  0  0  0  0
 12 28  1  0  0  0  0
 13 29  1  0  0  0  0
 16 30  1  0  0  0  0
 17 31  1  0  0  0  0
 20 32  1  0  0  0  0
M  END
> <OPENEYE_ISO_SMILES>
c1cc(cc(c1)Cl)CC(=O)Nc2cccc3c2cn[nH]3

> <OPENEYE_INCHI>
InChI=1S/C15H12ClN3O/c16-11-4-1-3-10(7-11)8-15(20)18-13-5-2-6-14-12(13)9-17-19-14/h1-7,9H,8H2,(H,17,19)(H,18,20)

> <OPENEYE_INCHIKEY>
CYQCEAJKJVOFMS-UHFFFAOYSA-N

> <FORMULA>
C15H12ClN3O

$$$$
