NIJ
  -OEChem-05102419323D

 34 35  0     0  0  0  0  0  0999 V2000
   -1.8590    0.5500   -0.3990 N   0  0  0  0  0  0  0  0  0  0  0  0
   -3.4220   -1.2240    0.1150 C   0  0  0  0  0  0  0  0  0  0  0  0
   -3.1720    0.0940   -0.2430 C   0  0  0  0  0  0  0  0  0  0  0  0
   -0.8490   -0.0680    0.2460 C   0  0  0  0  0  0  0  0  0  0  0  0
    0.5770    0.3400   -0.0200 C   0  0  0  0  0  0  0  0  0  0  0  0
    1.5190   -0.5120    0.8330 C   0  0  0  0  0  0  0  0  0  0  0  0
    3.5310    0.8920    1.3270 C   0  0  0  0  0  0  0  0  0  0  0  0
    4.9720   -0.3420   -0.6860 C   0  0  0  0  0  0  0  0  0  0  0  0
    5.6730   -0.9360   -1.6770 F   0  0  0  0  0  0  0  0  0  0  0  0
    5.5610    0.6520    0.0790 C   0  0  0  0  0  0  0  0  0  0  0  0
    4.8400    1.2670    1.0840 C   0  0  0  0  0  0  0  0  0  0  0  0
    3.6660   -0.7250   -0.4350 C   0  0  0  0  0  0  0  0  0  0  0  0
    2.9450   -0.1040    0.5680 C   0  0  0  0  0  0  0  0  0  0  0  0
   -1.0890   -0.9530    1.0390 O   0  0  0  0  0  0  0  0  0  0  0  0
   -4.2480    0.9550   -0.4430 C   0  0  0  0  0  0  0  0  0  0  0  0
   -4.0230    2.3940   -0.8330 C   0  0  0  0  0  0  0  0  0  0  0  0
   -4.6580   -1.6590    0.2580 N   0  0  0  0  0  0  0  0  0  0  0  0
   -5.6980   -0.8700    0.0710 C   0  0  0  0  0  0  0  0  0  0  0  0
   -5.5300    0.4570   -0.2770 C   0  0  0  0  0  0  0  0  0  0  0  0
   -1.6740    1.3090   -0.9740 H   0  0  0  0  0  0  0  0  0  0  0  0
   -2.5960   -1.9010    0.2720 H   0  0  0  0  0  0  0  0  0  0  0  0
    0.8070    0.1900   -1.0750 H   0  0  0  0  0  0  0  0  0  0  0  0
    0.7070    1.3920    0.2340 H   0  0  0  0  0  0  0  0  0  0  0  0
    1.2880   -0.3620    1.8880 H   0  0  0  0  0  0  0  0  0  0  0  0
    1.3880   -1.5640    0.5790 H   0  0  0  0  0  0  0  0  0  0  0  0
    2.9680    1.3740    2.1120 H   0  0  0  0  0  0  0  0  0  0  0  0
    6.5800    0.9510   -0.1170 H   0  0  0  0  0  0  0  0  0  0  0  0
    5.2990    2.0420    1.6810 H   0  0  0  0  0  0  0  0  0  0  0  0
    3.2060   -1.5000   -1.0300 H   0  0  0  0  0  0  0  0  0  0  0  0
   -3.9960    2.4760   -1.9190 H   0  0  0  0  0  0  0  0  0  0  0  0
   -4.8350    3.0070   -0.4420 H   0  0  0  0  0  0  0  0  0  0  0  0
   -3.0760    2.7390   -0.4180 H   0  0  0  0  0  0  0  0  0  0  0  0
   -6.6960   -1.2650    0.1980 H   0  0  0  0  0  0  0  0  0  0  0  0
   -6.3880    1.0960   -0.4280 H   0  0  0  0  0  0  0  0  0  0  0  0
 17 18  2  0  0  0  0
  2 17  1  0  0  0  0
 18 19  1  0  0  0  0
  2  3  2  0  0  0  0
 15 19  2  0  0  0  0
  3 15  1  0  0  0  0
  1  3  1  0  0  0  0
 15 16  1  0  0  0  0
  1  4  1  0  0  0  0
  4 14  2  0  0  0  0
  4  5  1  0  0  0  0
  5  6  1  0  0  0  0
  6 13  1  0  0  0  0
  7 13  2  0  0  0  0
 12 13  1  0  0  0  0
  7 11  1  0  0  0  0
  8 12  2  0  0  0  0
 10 11  2  0  0  0  0
  8 10  1  0  0  0  0
  8  9  1  0  0  0  0
  1 20  1  0  0  0  0
  2 21  1  0  0  0  0
  5 22  1  0  0  0  0
  5 23  1  0  0  0  0
  6 24  1  0  0  0  0
  6 25  1  0  0  0  0
  7 26  1  0  0  0  0
 10 27  1  0  0  0  0
 11 28  1  0  0  0  0
 12 29  1  0  0  0  0
 16 30  1  0  0  0  0
 16 31  1  0  0  0  0
 16 32  1  0  0  0  0
 18 33  1  0  0  0  0
 19 34  1  0  0  0  0
M  END
> <OPENEYE_ISO_SMILES>
Cc1ccncc1NC(=O)CCc2cccc(c2)F

> <OPENEYE_INCHI>
InChI=1S/C15H15FN2O/c1-11-7-8-17-10-14(11)18-15(19)6-5-12-3-2-4-13(16)9-12/h2-4,7-10H,5-6H2,1H3,(H,18,19)

> <OPENEYE_INCHIKEY>
RBRNVPIASJICKN-UHFFFAOYSA-N

> <FORMULA>
C15H15FN2O

$$$$
