NJE
  -OEChem-05102419323D

 36 37  0     0  0  0  0  0  0999 V2000
    1.1530    0.9460    0.3280 N   0  0  0  0  0  0  0  0  0  0  0  0
    2.2250   -1.2170    0.1520 C   0  0  0  0  0  0  0  0  0  0  0  0
    2.3030    0.1690    0.1520 C   0  0  0  0  0  0  0  0  0  0  0  0
   -0.0560    0.4420    0.0070 C   0  0  0  0  0  0  0  0  0  0  0  0
   -1.3050    1.2270    0.3140 C   0  0  0  0  0  0  0  0  0  0  0  0
   -3.6950    1.2930   -0.0670 C   0  0  0  0  0  0  0  0  0  0  0  0
   -5.0750   -0.7810    0.1090 C   0  0  0  0  0  0  0  0  0  0  0  0
   -0.1380   -0.6430   -0.5290 O   0  0  0  0  0  0  0  0  0  0  0  0
    3.3070   -1.9520   -0.0080 N   0  0  0  0  0  0  0  0  0  0  0  0
    4.4970   -1.4090   -0.1740 C   0  0  0  0  0  0  0  0  0  0  0  0
    4.6560   -0.0360   -0.1860 C   0  0  0  0  0  0  0  0  0  0  0  0
    3.5450    0.7750   -0.0260 C   0  0  0  0  0  0  0  0  0  0  0  0
    3.6770    2.2760   -0.0330 C   0  0  0  0  0  0  0  0  0  0  0  0
   -2.4820    0.4680   -0.1300 N   0  0  0  0  0  0  0  0  0  0  0  0
   -2.6370   -0.7660    0.6510 C   0  0  0  0  0  0  0  0  0  0  0  0
   -3.7810   -1.5990    0.0680 C   0  0  0  0  0  0  0  0  0  0  0  0
   -4.8700    0.5210   -0.6710 C   0  0  0  0  0  0  0  0  0  0  0  0
    1.2240    1.8450    0.6840 H   0  0  0  0  0  0  0  0  0  0  0  0
    1.2680   -1.6980    0.2900 H   0  0  0  0  0  0  0  0  0  0  0  0
   -1.3700    1.4020    1.3880 H   0  0  0  0  0  0  0  0  0  0  0  0
   -1.2710    2.1830   -0.2090 H   0  0  0  0  0  0  0  0  0  0  0  0
   -3.9150    1.5350    0.9730 H   0  0  0  0  0  0  0  0  0  0  0  0
   -3.5380    2.2140   -0.6290 H   0  0  0  0  0  0  0  0  0  0  0  0
   -5.8830   -1.3540   -0.3450 H   0  0  0  0  0  0  0  0  0  0  0  0
   -5.3270   -0.5500    1.1440 H   0  0  0  0  0  0  0  0  0  0  0  0
    5.3600   -2.0460   -0.3030 H   0  0  0  0  0  0  0  0  0  0  0  0
    5.6350    0.4000   -0.3220 H   0  0  0  0  0  0  0  0  0  0  0  0
    3.8580    2.6300    0.9820 H   0  0  0  0  0  0  0  0  0  0  0  0
    4.5100    2.5650   -0.6730 H   0  0  0  0  0  0  0  0  0  0  0  0
    2.7570    2.7200   -0.4130 H   0  0  0  0  0  0  0  0  0  0  0  0
   -1.7120   -1.3410    0.6100 H   0  0  0  0  0  0  0  0  0  0  0  0
   -2.8630   -0.5140    1.6870 H   0  0  0  0  0  0  0  0  0  0  0  0
   -3.9070   -2.5080    0.6570 H   0  0  0  0  0  0  0  0  0  0  0  0
   -3.5500   -1.8630   -0.9640 H   0  0  0  0  0  0  0  0  0  0  0  0
   -5.7740    1.1280   -0.6090 H   0  0  0  0  0  0  0  0  0  0  0  0
   -4.6560    0.2900   -1.7140 H   0  0  0  0  0  0  0  0  0  0  0  0
  9 10  2  0  0  0  0
  2  9  1  0  0  0  0
 10 11  1  0  0  0  0
  2  3  2  0  0  0  0
 11 12  2  0  0  0  0
  3 12  1  0  0  0  0
  1  3  1  0  0  0  0
 12 13  1  0  0  0  0
  4  8  2  0  0  0  0
  1  4  1  0  0  0  0
  4  5  1  0  0  0  0
  6 17  1  0  0  0  0
  6 14  1  0  0  0  0
  7 17  1  0  0  0  0
  5 14  1  0  0  0  0
 14 15  1  0  0  0  0
  7 16  1  0  0  0  0
 15 16  1  0  0  0  0
  1 18  1  0  0  0  0
  2 19  1  0  0  0  0
  5 20  1  0  0  0  0
  5 21  1  0  0  0  0
  6 22  1  0  0  0  0
  6 23  1  0  0  0  0
  7 24  1  0  0  0  0
  7 25  1  0  0  0  0
 10 26  1  0  0  0  0
 11 27  1  0  0  0  0
 13 28  1  0  0  0  0
 13 29  1  0  0  0  0
 13 30  1  0  0  0  0
 15 31  1  0  0  0  0
 15 32  1  0  0  0  0
 16 33  1  0  0  0  0
 16 34  1  0  0  0  0
 17 35  1  0  0  0  0
 17 36  1  0  0  0  0
M  END
> <OPENEYE_ISO_SMILES>
Cc1ccncc1NC(=O)CN2CCCCC2

> <OPENEYE_INCHI>
InChI=1S/C13H19N3O/c1-11-5-6-14-9-12(11)15-13(17)10-16-7-3-2-4-8-16/h5-6,9H,2-4,7-8,10H2,1H3,(H,15,17)

> <OPENEYE_INCHIKEY>
KNBSSRRKRQQGOO-UHFFFAOYSA-N

> <FORMULA>
C13H19N3O

$$$$
