NJU
  -OEChem-05102419323D

 38 40  0     0  0  0  0  0  0999 V2000
   -2.6360   -2.4620   -0.5790 N   0  0  0  0  0  0  0  0  0  0  0  0
    2.6090    1.0550    0.1170 C   0  0  0  0  0  0  0  0  0  0  0  0
    1.3040    1.3480    0.8120 C   0  0  0  0  0  0  0  0  0  0  0  0
    0.2520    0.3810    0.3340 C   0  0  0  0  0  0  0  0  0  0  0  0
   -2.0010   -0.3830    0.3110 C   0  0  0  0  0  0  0  0  0  0  0  0
   -1.6960   -1.6730   -0.0980 C   0  0  0  0  0  0  0  0  0  0  0  0
   -4.2680   -0.7850   -0.3050 C   0  0  0  0  0  0  0  0  0  0  0  0
   -4.9840    1.9190    0.0980 C   0  0  0  0  0  0  0  0  0  0  0  0
   -3.3180    0.0700    0.2080 C   0  0  0  0  0  0  0  0  0  0  0  0
    0.5340   -0.4630   -0.4900 O   0  0  0  0  0  0  0  0  0  0  0  0
    2.9100    1.6790   -1.0790 C   0  0  0  0  0  0  0  0  0  0  0  0
    4.1070    1.4110   -1.7170 C   0  0  0  0  0  0  0  0  0  0  0  0
    5.0030    0.5200   -1.1580 C   0  0  0  0  0  0  0  0  0  0  0  0
    3.5070    0.1680    0.6800 C   0  0  0  0  0  0  0  0  0  0  0  0
    4.7030   -0.1040    0.0400 C   0  0  0  0  0  0  0  0  0  0  0  0
    5.8320   -1.2190    0.7450 Cl  0  0  0  0  0  0  0  0  0  0  0  0
   -1.0020    0.4530    0.8220 N   0  0  0  0  0  0  0  0  0  0  0  0
   -3.6400    1.4650    0.6670 C   0  0  0  0  0  0  0  0  0  0  0  0
   -6.0270    0.8350    0.3940 C   0  0  0  0  0  0  0  0  0  0  0  0
   -5.7110   -0.3890   -0.4640 C   0  0  0  0  0  0  0  0  0  0  0  0
   -3.8850   -2.0620   -0.6910 C   0  0  0  0  0  0  0  0  0  0  0  0
    1.4340    1.2410    1.8890 H   0  0  0  0  0  0  0  0  0  0  0  0
    0.9910    2.3670    0.5840 H   0  0  0  0  0  0  0  0  0  0  0  0
   -0.6800   -2.0330   -0.0220 H   0  0  0  0  0  0  0  0  0  0  0  0
   -5.2840    2.8550    0.5690 H   0  0  0  0  0  0  0  0  0  0  0  0
   -4.8960    2.0630   -0.9790 H   0  0  0  0  0  0  0  0  0  0  0  0
    2.2090    2.3750   -1.5160 H   0  0  0  0  0  0  0  0  0  0  0  0
    4.3410    1.8980   -2.6520 H   0  0  0  0  0  0  0  0  0  0  0  0
    5.9380    0.3110   -1.6570 H   0  0  0  0  0  0  0  0  0  0  0  0
    3.2720   -0.3190    1.6150 H   0  0  0  0  0  0  0  0  0  0  0  0
   -1.2120    1.0850    1.5270 H   0  0  0  0  0  0  0  0  0  0  0  0
   -2.8580    2.1450    0.3290 H   0  0  0  0  0  0  0  0  0  0  0  0
   -3.6850    1.4850    1.7560 H   0  0  0  0  0  0  0  0  0  0  0  0
   -5.9850    0.5640    1.4490 H   0  0  0  0  0  0  0  0  0  0  0  0
   -7.0220    1.2090    0.1510 H   0  0  0  0  0  0  0  0  0  0  0  0
   -5.9080   -0.1560   -1.5110 H   0  0  0  0  0  0  0  0  0  0  0  0
   -6.3480   -1.2180   -0.1560 H   0  0  0  0  0  0  0  0  0  0  0  0
   -4.6250   -2.7400   -1.0910 H   0  0  0  0  0  0  0  0  0  0  0  0
  1 21  2  0  0  0  0
  1  6  1  0  0  0  0
  7 21  1  0  0  0  0
  5  6  2  0  0  0  0
  7 20  1  0  0  0  0
  7  9  2  0  0  0  0
 19 20  1  0  0  0  0
  5  9  1  0  0  0  0
  5 17  1  0  0  0  0
  9 18  1  0  0  0  0
  4 17  1  0  0  0  0
  8 19  1  0  0  0  0
 15 16  1  0  0  0  0
  4 10  2  0  0  0  0
  3  4  1  0  0  0  0
  8 18  1  0  0  0  0
 14 15  2  0  0  0  0
  2 14  1  0  0  0  0
 13 15  1  0  0  0  0
  2  3  1  0  0  0  0
  2 11  2  0  0  0  0
 12 13  2  0  0  0  0
 11 12  1  0  0  0  0
  3 22  1  0  0  0  0
  3 23  1  0  0  0  0
  6 24  1  0  0  0  0
  8 25  1  0  0  0  0
  8 26  1  0  0  0  0
 11 27  1  0  0  0  0
 12 28  1  0  0  0  0
 13 29  1  0  0  0  0
 14 30  1  0  0  0  0
 17 31  1  0  0  0  0
 18 32  1  0  0  0  0
 18 33  1  0  0  0  0
 19 34  1  0  0  0  0
 19 35  1  0  0  0  0
 20 36  1  0  0  0  0
 20 37  1  0  0  0  0
 21 38  1  0  0  0  0
M  END
> <OPENEYE_ISO_SMILES>
c1cc(cc(c1)Cl)CC(=O)Nc2cncc3c2CCCC3

> <OPENEYE_INCHI>
InChI=1S/C17H17ClN2O/c18-14-6-3-4-12(8-14)9-17(21)20-16-11-19-10-13-5-1-2-7-15(13)16/h3-4,6,8,10-11H,1-2,5,7,9H2,(H,20,21)

> <OPENEYE_INCHIKEY>
KVBRDRRWOWILOL-UHFFFAOYSA-N

> <FORMULA>
C17H17ClN2O

$$$$
