NKU
  -OEChem-05102419323D

 37 39  0     0  0  0  0  0  0999 V2000
   -2.5090   -0.1390   -0.9360 N   0  0  0  0  0  0  0  0  0  0  0  0
   -3.7170   -1.9720   -0.9960 N   0  0  0  0  0  0  0  0  0  0  0  0
    3.3450   -2.0090    1.0230 C   0  0  0  0  0  0  0  0  0  0  0  0
    4.5270   -1.6710    0.3910 C   0  0  0  0  0  0  0  0  0  0  0  0
    4.7620   -0.3590    0.0200 C   0  0  0  0  0  0  0  0  0  0  0  0
    3.8130    0.6140    0.2820 C   0  0  0  0  0  0  0  0  0  0  0  0
   -0.4370    0.6760    0.0310 C   0  0  0  0  0  0  0  0  0  0  0  0
   -4.4540   -1.0430   -0.3560 C   0  0  0  0  0  0  0  0  0  0  0  0
   -5.4760    1.2220    0.8770 C   0  0  0  0  0  0  0  0  0  0  0  0
   -3.6960    0.1400   -0.3010 C   0  0  0  0  0  0  0  0  0  0  0  0
   -0.6770   -0.0900    0.9400 O   0  0  0  0  0  0  0  0  0  0  0  0
   -1.3850    0.7800   -1.1360 C   0  0  0  0  0  0  0  0  0  0  0  0
   -4.2170    1.2700    0.3200 C   0  0  0  0  0  0  0  0  0  0  0  0
   -6.2260    0.0540    0.8230 C   0  0  0  0  0  0  0  0  0  0  0  0
   -5.7330   -1.0640    0.2170 C   0  0  0  0  0  0  0  0  0  0  0  0
   -2.5830   -1.4770   -1.3490 N   0  0  0  0  0  0  0  0  0  0  0  0
    0.6770    1.4340    0.0640 N   0  0  0  0  0  0  0  0  0  0  0  0
    0.9660    2.3600   -1.0340 C   0  0  0  0  0  0  0  0  0  0  0  0
    1.5980    1.3330    1.1990 C   0  0  0  0  0  0  0  0  0  0  0  0
    2.6310    0.2740    0.9130 C   0  0  0  0  0  0  0  0  0  0  0  0
    6.2460    0.0670   -0.7730 Cl  0  0  0  0  0  0  0  0  0  0  0  0
    2.3980   -1.0380    1.2830 C   0  0  0  0  0  0  0  0  0  0  0  0
    3.1600   -3.0340    1.3080 H   0  0  0  0  0  0  0  0  0  0  0  0
    5.2680   -2.4300    0.1870 H   0  0  0  0  0  0  0  0  0  0  0  0
    3.9950    1.6380   -0.0070 H   0  0  0  0  0  0  0  0  0  0  0  0
   -5.8820    2.0990    1.3600 H   0  0  0  0  0  0  0  0  0  0  0  0
   -0.8610    0.5180   -2.0540 H   0  0  0  0  0  0  0  0  0  0  0  0
   -1.7600    1.8010   -1.2100 H   0  0  0  0  0  0  0  0  0  0  0  0
   -3.6380    2.1800    0.3650 H   0  0  0  0  0  0  0  0  0  0  0  0
   -7.2110    0.0310    1.2650 H   0  0  0  0  0  0  0  0  0  0  0  0
   -6.3230   -1.9680    0.1880 H   0  0  0  0  0  0  0  0  0  0  0  0
    0.5180    3.3300   -0.8190 H   0  0  0  0  0  0  0  0  0  0  0  0
    2.0450    2.4720   -1.1400 H   0  0  0  0  0  0  0  0  0  0  0  0
    0.5490    1.9650   -1.9610 H   0  0  0  0  0  0  0  0  0  0  0  0
    2.0930    2.2920    1.3510 H   0  0  0  0  0  0  0  0  0  0  0  0
    1.0410    1.0650    2.0960 H   0  0  0  0  0  0  0  0  0  0  0  0
    1.4740   -1.3030    1.7770 H   0  0  0  0  0  0  0  0  0  0  0  0
  2 16  2  0  0  0  0
  2  8  1  0  0  0  0
  8 15  2  0  0  0  0
 14 15  1  0  0  0  0
  1 16  1  0  0  0  0
  8 10  1  0  0  0  0
  9 14  2  0  0  0  0
  1 10  1  0  0  0  0
  1 12  1  0  0  0  0
 10 13  2  0  0  0  0
  9 13  1  0  0  0  0
  7 12  1  0  0  0  0
  7 11  2  0  0  0  0
  7 17  1  0  0  0  0
  3 22  2  0  0  0  0
  3  4  1  0  0  0  0
 20 22  1  0  0  0  0
 17 19  1  0  0  0  0
 17 18  1  0  0  0  0
  4  5  2  0  0  0  0
 19 20  1  0  0  0  0
  6 20  2  0  0  0  0
  5  6  1  0  0  0  0
  5 21  1  0  0  0  0
  3 23  1  0  0  0  0
  4 24  1  0  0  0  0
  6 25  1  0  0  0  0
  9 26  1  0  0  0  0
 12 27  1  0  0  0  0
 12 28  1  0  0  0  0
 13 29  1  0  0  0  0
 14 30  1  0  0  0  0
 15 31  1  0  0  0  0
 18 32  1  0  0  0  0
 18 33  1  0  0  0  0
 18 34  1  0  0  0  0
 19 35  1  0  0  0  0
 19 36  1  0  0  0  0
 22 37  1  0  0  0  0
M  END
> <OPENEYE_ISO_SMILES>
CN(Cc1cccc(c1)Cl)C(=O)Cn2c3ccccc3nn2

> <OPENEYE_INCHI>
InChI=1S/C16H15ClN4O/c1-20(10-12-5-4-6-13(17)9-12)16(22)11-21-15-8-3-2-7-14(15)18-19-21/h2-9H,10-11H2,1H3

> <OPENEYE_INCHIKEY>
HSYVELSOLBWEKK-UHFFFAOYSA-N

> <FORMULA>
C16H15ClN4O

$$$$
