NM0
  -OEChem-05102419323D

 32 34  0     0  0  0  0  0  0999 V2000
    3.2530   -1.4430    1.3230 N   0  0  0  0  0  0  0  0  0  0  0  0
   -2.5110    1.0510   -0.1470 C   0  0  0  0  0  0  0  0  0  0  0  0
   -1.1830    1.4410   -0.7430 C   0  0  0  0  0  0  0  0  0  0  0  0
   -0.0890    0.6130   -0.1200 C   0  0  0  0  0  0  0  0  0  0  0  0
    2.2070    0.0200    0.0780 C   0  0  0  0  0  0  0  0  0  0  0  0
    2.0520   -0.9360    1.0290 C   0  0  0  0  0  0  0  0  0  0  0  0
    5.5730   -0.9900    0.5060 C   0  0  0  0  0  0  0  0  0  0  0  0
    4.2670    0.8620   -1.0740 C   0  0  0  0  0  0  0  0  0  0  0  0
   -0.3620   -0.2150    0.7250 O   0  0  0  0  0  0  0  0  0  0  0  0
   -2.9800    1.6980    0.9800 C   0  0  0  0  0  0  0  0  0  0  0  0
   -4.1990    1.3400    1.5270 C   0  0  0  0  0  0  0  0  0  0  0  0
   -4.9480    0.3350    0.9460 C   0  0  0  0  0  0  0  0  0  0  0  0
   -3.2620    0.0490   -0.7320 C   0  0  0  0  0  0  0  0  0  0  0  0
   -4.4790   -0.3130   -0.1830 C   0  0  0  0  0  0  0  0  0  0  0  0
   -5.4230   -1.5720   -0.9170 Cl  0  0  0  0  0  0  0  0  0  0  0  0
    1.1910    0.7900   -0.5010 N   0  0  0  0  0  0  0  0  0  0  0  0
    3.5440    0.0890   -0.2080 N   0  0  0  0  0  0  0  0  0  0  0  0
    4.1740   -0.8380    0.5870 C   0  0  0  0  0  0  0  0  0  0  0  0
    5.6060    0.7270   -1.1610 C   0  0  0  0  0  0  0  0  0  0  0  0
    6.2780   -0.2130   -0.3600 C   0  0  0  0  0  0  0  0  0  0  0  0
   -1.2020    1.2680   -1.8190 H   0  0  0  0  0  0  0  0  0  0  0  0
   -0.9940    2.4970   -0.5480 H   0  0  0  0  0  0  0  0  0  0  0  0
    1.1150   -1.2370    1.4740 H   0  0  0  0  0  0  0  0  0  0  0  0
    6.0800   -1.7150    1.1250 H   0  0  0  0  0  0  0  0  0  0  0  0
    3.7610    1.5880   -1.6930 H   0  0  0  0  0  0  0  0  0  0  0  0
   -2.3940    2.4840    1.4340 H   0  0  0  0  0  0  0  0  0  0  0  0
   -4.5640    1.8460    2.4080 H   0  0  0  0  0  0  0  0  0  0  0  0
   -5.9000    0.0560    1.3730 H   0  0  0  0  0  0  0  0  0  0  0  0
   -2.8950   -0.4570   -1.6130 H   0  0  0  0  0  0  0  0  0  0  0  0
    1.4090    1.4510   -1.1760 H   0  0  0  0  0  0  0  0  0  0  0  0
    6.1640    1.3430   -1.8490 H   0  0  0  0  0  0  0  0  0  0  0  0
    7.3500   -0.3190   -0.4330 H   0  0  0  0  0  0  0  0  0  0  0  0
  1  6  1  0  0  0  0
  1 18  2  0  0  0  0
  7 18  1  0  0  0  0
  7 20  2  0  0  0  0
  5  6  2  0  0  0  0
 17 18  1  0  0  0  0
 19 20  1  0  0  0  0
  5 17  1  0  0  0  0
  5 16  1  0  0  0  0
  8 17  1  0  0  0  0
  8 19  2  0  0  0  0
  4 16  1  0  0  0  0
 14 15  1  0  0  0  0
  4  9  2  0  0  0  0
  3  4  1  0  0  0  0
 13 14  2  0  0  0  0
 12 14  1  0  0  0  0
  2 13  1  0  0  0  0
  2  3  1  0  0  0  0
 11 12  2  0  0  0  0
  2 10  2  0  0  0  0
 10 11  1  0  0  0  0
  3 21  1  0  0  0  0
  3 22  1  0  0  0  0
  6 23  1  0  0  0  0
  7 24  1  0  0  0  0
  8 25  1  0  0  0  0
 10 26  1  0  0  0  0
 11 27  1  0  0  0  0
 12 28  1  0  0  0  0
 13 29  1  0  0  0  0
 16 30  1  0  0  0  0
 19 31  1  0  0  0  0
 20 32  1  0  0  0  0
M  END
> <OPENEYE_ISO_SMILES>
c1ccn2c(c1)ncc2NC(=O)Cc3cccc(c3)Cl

> <OPENEYE_INCHI>
InChI=1S/C15H12ClN3O/c16-12-5-3-4-11(8-12)9-15(20)18-14-10-17-13-6-1-2-7-19(13)14/h1-8,10H,9H2,(H,18,20)

> <OPENEYE_INCHIKEY>
GRCPKASYWFJZEJ-UHFFFAOYSA-N

> <FORMULA>
C15H12ClN3O

$$$$
