NO0
  -OEChem-05102419323D

 36 38  0     0  0  0  0  0  0999 V2000
   -2.4640   -2.3680   -0.6100 N   0  0  0  0  0  0  0  0  0  0  0  0
    4.3950    1.3460   -1.6060 C   0  0  0  0  0  0  0  0  0  0  0  0
    5.2120    0.3930   -1.0350 C   0  0  0  0  0  0  0  0  0  0  0  0
    4.8150   -0.2480    0.1400 C   0  0  0  0  0  0  0  0  0  0  0  0
    5.6590   -1.2380    0.7380 C   0  0  0  0  0  0  0  0  0  0  0  0
    6.3510   -2.0500    1.2300 C   0  0  0  0  0  0  0  0  0  0  0  0
   -1.8750   -0.2370    0.2170 C   0  0  0  0  0  0  0  0  0  0  0  0
   -4.1900   -0.8040   -0.2530 C   0  0  0  0  0  0  0  0  0  0  0  0
   -5.9260    0.7950    0.1180 C   0  0  0  0  0  0  0  0  0  0  0  0
   -3.6590    1.4160    0.6010 C   0  0  0  0  0  0  0  0  0  0  0  0
    0.6510   -0.3260   -0.6120 O   0  0  0  0  0  0  0  0  0  0  0  0
    0.3810    0.5120    0.2220 C   0  0  0  0  0  0  0  0  0  0  0  0
   -0.8890    0.6540    0.6490 N   0  0  0  0  0  0  0  0  0  0  0  0
   -3.2350    0.1440    0.1960 C   0  0  0  0  0  0  0  0  0  0  0  0
   -4.9860    1.7250    0.5580 C   0  0  0  0  0  0  0  0  0  0  0  0
   -5.5480   -0.4500   -0.2830 C   0  0  0  0  0  0  0  0  0  0  0  0
   -3.7430   -2.0740   -0.6530 C   0  0  0  0  0  0  0  0  0  0  0  0
   -1.5430   -1.5090   -0.1980 C   0  0  0  0  0  0  0  0  0  0  0  0
    1.4670    1.3930    0.7830 C   0  0  0  0  0  0  0  0  0  0  0  0
    2.7850    1.0340    0.1460 C   0  0  0  0  0  0  0  0  0  0  0  0
    3.5930    0.0790    0.7280 C   0  0  0  0  0  0  0  0  0  0  0  0
    3.1870    1.6700   -1.0150 C   0  0  0  0  0  0  0  0  0  0  0  0
    4.7010    1.8430   -2.5150 H   0  0  0  0  0  0  0  0  0  0  0  0
    6.1570    0.1440   -1.4950 H   0  0  0  0  0  0  0  0  0  0  0  0
    6.9700   -2.7750    1.6690 H   0  0  0  0  0  0  0  0  0  0  0  0
   -6.9710    1.0670    0.0940 H   0  0  0  0  0  0  0  0  0  0  0  0
   -2.9410    2.1450    0.9450 H   0  0  0  0  0  0  0  0  0  0  0  0
   -1.1200    1.3750    1.2550 H   0  0  0  0  0  0  0  0  0  0  0  0
   -5.3140    2.7060    0.8700 H   0  0  0  0  0  0  0  0  0  0  0  0
   -6.2870   -1.1600   -0.6230 H   0  0  0  0  0  0  0  0  0  0  0  0
   -4.4530   -2.8110   -0.9980 H   0  0  0  0  0  0  0  0  0  0  0  0
   -0.5070   -1.8140   -0.1860 H   0  0  0  0  0  0  0  0  0  0  0  0
    1.2340    2.4370    0.5710 H   0  0  0  0  0  0  0  0  0  0  0  0
    1.5330    1.2470    1.8610 H   0  0  0  0  0  0  0  0  0  0  0  0
    3.2810   -0.4140    1.6360 H   0  0  0  0  0  0  0  0  0  0  0  0
    2.5500    2.4170   -1.4660 H   0  0  0  0  0  0  0  0  0  0  0  0
  1 17  2  0  0  0  0
  1 18  1  0  0  0  0
  8 17  1  0  0  0  0
  7 18  2  0  0  0  0
  8 16  2  0  0  0  0
  8 14  1  0  0  0  0
  9 16  1  0  0  0  0
  7 14  1  0  0  0  0
  7 13  1  0  0  0  0
 10 14  2  0  0  0  0
  5  6  3  0  0  0  0
 12 13  1  0  0  0  0
  9 15  2  0  0  0  0
  4  5  1  0  0  0  0
 11 12  2  0  0  0  0
 12 19  1  0  0  0  0
 10 15  1  0  0  0  0
  4 21  2  0  0  0  0
 20 21  1  0  0  0  0
  3  4  1  0  0  0  0
 19 20  1  0  0  0  0
 20 22  2  0  0  0  0
  2  3  2  0  0  0  0
  2 22  1  0  0  0  0
  2 23  1  0  0  0  0
  3 24  1  0  0  0  0
  6 25  1  0  0  0  0
  9 26  1  0  0  0  0
 10 27  1  0  0  0  0
 13 28  1  0  0  0  0
 15 29  1  0  0  0  0
 16 30  1  0  0  0  0
 17 31  1  0  0  0  0
 18 32  1  0  0  0  0
 19 33  1  0  0  0  0
 19 34  1  0  0  0  0
 21 35  1  0  0  0  0
 22 36  1  0  0  0  0
M  END
> <OPENEYE_ISO_SMILES>
C#Cc1cccc(c1)CC(=O)Nc2cncc3c2cccc3

> <OPENEYE_INCHI>
InChI=1S/C19H14N2O/c1-2-14-6-5-7-15(10-14)11-19(22)21-18-13-20-12-16-8-3-4-9-17(16)18/h1,3-10,12-13H,11H2,(H,21,22)

> <OPENEYE_INCHIKEY>
CLLYBOMGFSNDSO-UHFFFAOYSA-N

> <FORMULA>
C19H14N2O

$$$$
