NOI
  -OEChem-05102419323D

 29 30  0     0  0  0  0  0  0999 V2000
   -4.1300   -1.3890   -1.3550 N   0  0  0  0  0  0  0  0  0  0  0  0
   -0.7810    0.5320    0.2530 C   0  0  0  0  0  0  0  0  0  0  0  0
    0.3110    1.2980    0.9530 C   0  0  0  0  0  0  0  0  0  0  0  0
    1.6300    1.0210    0.2800 C   0  0  0  0  0  0  0  0  0  0  0  0
    2.0560    1.8220   -0.7630 C   0  0  0  0  0  0  0  0  0  0  0  0
    3.2660    1.5690   -1.3800 C   0  0  0  0  0  0  0  0  0  0  0  0
    3.6270   -0.2870    0.0900 C   0  0  0  0  0  0  0  0  0  0  0  0
    4.6130   -1.6120    0.6250 Cl  0  0  0  0  0  0  0  0  0  0  0  0
    4.0520    0.5150   -0.9550 C   0  0  0  0  0  0  0  0  0  0  0  0
    2.4180   -0.0300    0.7110 C   0  0  0  0  0  0  0  0  0  0  0  0
   -0.5140   -0.1710   -0.7000 O   0  0  0  0  0  0  0  0  0  0  0  0
   -2.0550    0.6270    0.6840 N   0  0  0  0  0  0  0  0  0  0  0  0
   -3.0670   -0.0840    0.0340 C   0  0  0  0  0  0  0  0  0  0  0  0
   -4.3990   -0.0880    0.3550 N   0  0  0  0  0  0  0  0  0  0  0  0
   -5.0340    0.6530    1.4480 C   0  0  0  0  0  0  0  0  0  0  0  0
   -2.9220   -0.9020   -1.0350 C   0  0  0  0  0  0  0  0  0  0  0  0
   -5.0220   -0.9100   -0.5320 C   0  0  0  0  0  0  0  0  0  0  0  0
    0.0940    2.3660    0.9040 H   0  0  0  0  0  0  0  0  0  0  0  0
    0.3620    0.9860    1.9960 H   0  0  0  0  0  0  0  0  0  0  0  0
    1.4410    2.6460   -1.0960 H   0  0  0  0  0  0  0  0  0  0  0  0
    3.5980    2.1950   -2.1960 H   0  0  0  0  0  0  0  0  0  0  0  0
    4.9960    0.3140   -1.4400 H   0  0  0  0  0  0  0  0  0  0  0  0
    2.0860   -0.6560    1.5260 H   0  0  0  0  0  0  0  0  0  0  0  0
   -2.2680    1.1880    1.4450 H   0  0  0  0  0  0  0  0  0  0  0  0
   -5.3450    1.6340    1.0890 H   0  0  0  0  0  0  0  0  0  0  0  0
   -5.9050    0.1030    1.8030 H   0  0  0  0  0  0  0  0  0  0  0  0
   -4.3230    0.7750    2.2660 H   0  0  0  0  0  0  0  0  0  0  0  0
   -1.9950   -1.1240   -1.5430 H   0  0  0  0  0  0  0  0  0  0  0  0
   -6.0790   -1.1300   -0.5520 H   0  0  0  0  0  0  0  0  0  0  0  0
  1 17  2  0  0  0  0
  1 16  1  0  0  0  0
 14 17  1  0  0  0  0
 13 16  2  0  0  0  0
 13 14  1  0  0  0  0
 14 15  1  0  0  0  0
 12 13  1  0  0  0  0
  2 12  1  0  0  0  0
  2 11  2  0  0  0  0
  7  8  1  0  0  0  0
  2  3  1  0  0  0  0
  7 10  2  0  0  0  0
  4 10  1  0  0  0  0
  7  9  1  0  0  0  0
  3  4  1  0  0  0  0
  4  5  2  0  0  0  0
  6  9  2  0  0  0  0
  5  6  1  0  0  0  0
  3 18  1  0  0  0  0
  3 19  1  0  0  0  0
  5 20  1  0  0  0  0
  6 21  1  0  0  0  0
  9 22  1  0  0  0  0
 10 23  1  0  0  0  0
 12 24  1  0  0  0  0
 15 25  1  0  0  0  0
 15 26  1  0  0  0  0
 15 27  1  0  0  0  0
 16 28  1  0  0  0  0
 17 29  1  0  0  0  0
M  END
> <OPENEYE_ISO_SMILES>
Cn1cncc1NC(=O)Cc2cccc(c2)Cl

> <OPENEYE_INCHI>
InChI=1S/C12H12ClN3O/c1-16-8-14-7-11(16)15-12(17)6-9-3-2-4-10(13)5-9/h2-5,7-8H,6H2,1H3,(H,15,17)

> <OPENEYE_INCHIKEY>
DVAZCJFDVZFHLG-UHFFFAOYSA-N

> <FORMULA>
C12H12ClN3O

$$$$
