NQO
  -OEChem-05102419323D

 30 31  0     0  0  0  0  0  0999 V2000
    2.6160    0.9920   -0.6230 N   0  0  0  0  0  0  0  0  0  0  0  0
    2.8670   -0.0760    0.1180 C   0  0  0  0  0  0  0  0  0  0  0  0
    0.5670   -0.6660    0.1020 C   0  0  0  0  0  0  0  0  0  0  0  0
   -0.5550   -1.5870    0.5080 C   0  0  0  0  0  0  0  0  0  0  0  0
   -1.8550   -1.0730   -0.0540 C   0  0  0  0  0  0  0  0  0  0  0  0
   -2.2790   -1.4840   -1.3040 C   0  0  0  0  0  0  0  0  0  0  0  0
   -4.2410   -0.1300   -1.0870 C   0  0  0  0  0  0  0  0  0  0  0  0
   -4.7870    1.3870    1.0890 Cl  0  0  0  0  0  0  0  0  0  0  0  0
   -3.8210    0.2780    0.1670 C   0  0  0  0  0  0  0  0  0  0  0  0
   -3.4710   -1.0130   -1.8200 C   0  0  0  0  0  0  0  0  0  0  0  0
   -2.6270   -0.1940    0.6830 C   0  0  0  0  0  0  0  0  0  0  0  0
    0.3330    0.3120   -0.5770 O   0  0  0  0  0  0  0  0  0  0  0  0
    1.8300   -0.9280    0.4930 N   0  0  0  0  0  0  0  0  0  0  0  0
    4.1740   -0.3450    0.5210 C   0  0  0  0  0  0  0  0  0  0  0  0
    4.4950   -1.5520    1.3630 C   0  0  0  0  0  0  0  0  0  0  0  0
    3.5420    1.8010   -0.9900 N   0  0  0  0  0  0  0  0  0  0  0  0
    4.8050    1.6240   -0.6550 C   0  0  0  0  0  0  0  0  0  0  0  0
    5.1700    0.5330    0.1210 C   0  0  0  0  0  0  0  0  0  0  0  0
   -0.3620   -2.5870    0.1200 H   0  0  0  0  0  0  0  0  0  0  0  0
   -0.6190   -1.6250    1.5950 H   0  0  0  0  0  0  0  0  0  0  0  0
   -1.6770   -2.1740   -1.8780 H   0  0  0  0  0  0  0  0  0  0  0  0
   -5.1730    0.2380   -1.4900 H   0  0  0  0  0  0  0  0  0  0  0  0
   -3.8020   -1.3340   -2.7970 H   0  0  0  0  0  0  0  0  0  0  0  0
   -2.2980    0.1240    1.6610 H   0  0  0  0  0  0  0  0  0  0  0  0
    2.0160   -1.7100    1.0360 H   0  0  0  0  0  0  0  0  0  0  0  0
    4.7210   -2.3990    0.7150 H   0  0  0  0  0  0  0  0  0  0  0  0
    5.3590   -1.3370    1.9930 H   0  0  0  0  0  0  0  0  0  0  0  0
    3.6380   -1.7940    1.9920 H   0  0  0  0  0  0  0  0  0  0  0  0
    5.5550    2.3280   -0.9840 H   0  0  0  0  0  0  0  0  0  0  0  0
    6.2000    0.3720    0.4050 H   0  0  0  0  0  0  0  0  0  0  0  0
 16 17  2  0  0  0  0
  1 16  1  0  0  0  0
 17 18  1  0  0  0  0
  1  2  2  0  0  0  0
 14 18  2  0  0  0  0
  2 14  1  0  0  0  0
  2 13  1  0  0  0  0
 14 15  1  0  0  0  0
  3 13  1  0  0  0  0
  3 12  2  0  0  0  0
  8  9  1  0  0  0  0
  3  4  1  0  0  0  0
  9 11  2  0  0  0  0
  5 11  1  0  0  0  0
  7  9  1  0  0  0  0
  4  5  1  0  0  0  0
  5  6  2  0  0  0  0
  7 10  2  0  0  0  0
  6 10  1  0  0  0  0
  4 19  1  0  0  0  0
  4 20  1  0  0  0  0
  6 21  1  0  0  0  0
  7 22  1  0  0  0  0
 10 23  1  0  0  0  0
 11 24  1  0  0  0  0
 13 25  1  0  0  0  0
 15 26  1  0  0  0  0
 15 27  1  0  0  0  0
 15 28  1  0  0  0  0
 17 29  1  0  0  0  0
 18 30  1  0  0  0  0
M  END
> <OPENEYE_ISO_SMILES>
Cc1ccnnc1NC(=O)Cc2cccc(c2)Cl

> <OPENEYE_INCHI>
InChI=1S/C13H12ClN3O/c1-9-5-6-15-17-13(9)16-12(18)8-10-3-2-4-11(14)7-10/h2-7H,8H2,1H3,(H,16,17,18)

> <OPENEYE_INCHIKEY>
ZNGNXXLXHHJCCJ-UHFFFAOYSA-N

> <FORMULA>
C13H12ClN3O

$$$$
