NRX
  -OEChem-05102419323D

 32 34  0     0  0  0  0  0  0999 V2000
    2.0500    0.9260   -0.9830 N   0  0  0  0  0  0  0  0  0  0  0  0
   -2.5230   -1.0560    0.1290 C   0  0  0  0  0  0  0  0  0  0  0  0
   -1.1980   -1.4630    0.7190 C   0  0  0  0  0  0  0  0  0  0  0  0
   -0.1010   -0.6250    0.1150 C   0  0  0  0  0  0  0  0  0  0  0  0
    2.2000   -0.0340   -0.0660 C   0  0  0  0  0  0  0  0  0  0  0  0
    3.2160    1.4460   -1.2800 C   0  0  0  0  0  0  0  0  0  0  0  0
    6.2750    0.2270    0.3410 C   0  0  0  0  0  0  0  0  0  0  0  0
    3.5520   -0.1170    0.2270 C   0  0  0  0  0  0  0  0  0  0  0  0
   -0.3680    0.2200   -0.7130 O   0  0  0  0  0  0  0  0  0  0  0  0
   -2.9920   -1.6790   -1.0130 C   0  0  0  0  0  0  0  0  0  0  0  0
   -4.2080   -1.3060   -1.5550 C   0  0  0  0  0  0  0  0  0  0  0  0
   -4.9550   -0.3090   -0.9560 C   0  0  0  0  0  0  0  0  0  0  0  0
   -3.2730   -0.0640    0.7320 C   0  0  0  0  0  0  0  0  0  0  0  0
   -4.4870    0.3140    0.1860 C   0  0  0  0  0  0  0  0  0  0  0  0
   -5.4290    1.5610    0.9430 Cl  0  0  0  0  0  0  0  0  0  0  0  0
    1.1780   -0.8150    0.4960 N   0  0  0  0  0  0  0  0  0  0  0  0
    4.1780    0.8360   -0.5590 N   0  0  0  0  0  0  0  0  0  0  0  0
    4.3130   -0.9220    1.0950 C   0  0  0  0  0  0  0  0  0  0  0  0
    5.6600   -0.7490    1.1500 C   0  0  0  0  0  0  0  0  0  0  0  0
    5.5400    0.9930   -0.4870 C   0  0  0  0  0  0  0  0  0  0  0  0
   -1.2190   -1.3110    1.7980 H   0  0  0  0  0  0  0  0  0  0  0  0
   -1.0120   -2.5150    0.5040 H   0  0  0  0  0  0  0  0  0  0  0  0
    3.3800    2.2410   -1.9920 H   0  0  0  0  0  0  0  0  0  0  0  0
    7.3450    0.3620    0.3860 H   0  0  0  0  0  0  0  0  0  0  0  0
   -2.4080   -2.4580   -1.4820 H   0  0  0  0  0  0  0  0  0  0  0  0
   -4.5730   -1.7930   -2.4470 H   0  0  0  0  0  0  0  0  0  0  0  0
   -5.9040   -0.0170   -1.3810 H   0  0  0  0  0  0  0  0  0  0  0  0
   -2.9070    0.4230    1.6240 H   0  0  0  0  0  0  0  0  0  0  0  0
    1.3930   -1.4900    1.1580 H   0  0  0  0  0  0  0  0  0  0  0  0
    3.8320   -1.6670    1.7120 H   0  0  0  0  0  0  0  0  0  0  0  0
    6.2580   -1.3600    1.8110 H   0  0  0  0  0  0  0  0  0  0  0  0
    6.0270    1.7370   -1.1000 H   0  0  0  0  0  0  0  0  0  0  0  0
  1  6  2  0  0  0  0
  6 17  1  0  0  0  0
  1  5  1  0  0  0  0
 17 20  1  0  0  0  0
  8 17  1  0  0  0  0
  7 20  2  0  0  0  0
  5  8  2  0  0  0  0
  5 16  1  0  0  0  0
  8 18  1  0  0  0  0
  4 16  1  0  0  0  0
  7 19  1  0  0  0  0
  4  9  2  0  0  0  0
  3  4  1  0  0  0  0
 18 19  2  0  0  0  0
  2  3  1  0  0  0  0
 14 15  1  0  0  0  0
  2 13  2  0  0  0  0
 13 14  1  0  0  0  0
  2 10  1  0  0  0  0
 12 14  2  0  0  0  0
 10 11  2  0  0  0  0
 11 12  1  0  0  0  0
  3 21  1  0  0  0  0
  3 22  1  0  0  0  0
  6 23  1  0  0  0  0
  7 24  1  0  0  0  0
 10 25  1  0  0  0  0
 11 26  1  0  0  0  0
 12 27  1  0  0  0  0
 13 28  1  0  0  0  0
 16 29  1  0  0  0  0
 18 30  1  0  0  0  0
 19 31  1  0  0  0  0
 20 32  1  0  0  0  0
M  END
> <OPENEYE_ISO_SMILES>
c1ccn2cnc(c2c1)NC(=O)Cc3cccc(c3)Cl

> <OPENEYE_INCHI>
InChI=1S/C15H12ClN3O/c16-12-5-3-4-11(8-12)9-14(20)18-15-13-6-1-2-7-19(13)10-17-15/h1-8,10H,9H2,(H,18,20)

> <OPENEYE_INCHIKEY>
SDPLNJUUYIUIPZ-UHFFFAOYSA-N

> <FORMULA>
C15H12ClN3O

$$$$
