NSR
  -OEChem-05102419323D

 39 42  0     1  0  0  0  0  0999 V2000
   -2.9840   -0.1520   -2.4140 N   0  0  0  0  0  0  0  0  0  0  0  0
    3.5180    2.9570    0.6130 C   0  0  0  0  0  0  0  0  0  0  0  0
    2.0970    2.8540    0.0440 C   0  0  0  0  0  0  0  0  0  0  0  0
    1.4770    1.5430    0.5350 C   0  0  1  0  0  0  0  0  0  0  0  0
    0.2060    1.2730   -0.2270 C   0  0  0  0  0  0  0  0  0  0  0  0
   -1.9800    0.3450   -0.3360 C   0  0  0  0  0  0  0  0  0  0  0  0
   -4.1620   -0.3590   -1.8740 C   0  0  0  0  0  0  0  0  0  0  0  0
   -5.6930   -0.2900    1.4790 C   0  0  0  0  0  0  0  0  0  0  0  0
   -3.3730    0.2790    1.6940 C   0  0  0  0  0  0  0  0  0  0  0  0
    2.4460    0.4090    0.3120 C   0  0  0  0  0  0  0  0  0  0  0  0
    0.1280    1.5690   -1.4010 O   0  0  0  0  0  0  0  0  0  0  0  0
    4.3030    1.9010    0.0580 O   0  0  0  0  0  0  0  0  0  0  0  0
    3.7920    0.6430    0.0940 C   0  0  0  0  0  0  0  0  0  0  0  0
    4.6560   -0.4310   -0.1020 C   0  0  0  0  0  0  0  0  0  0  0  0
    4.1730   -1.7230   -0.0830 C   0  0  0  0  0  0  0  0  0  0  0  0
    1.9660   -0.8900    0.3300 C   0  0  0  0  0  0  0  0  0  0  0  0
    2.8260   -1.9540    0.1330 C   0  0  0  0  0  0  0  0  0  0  0  0
    2.2160   -3.5790    0.1560 Cl  0  0  0  0  0  0  0  0  0  0  0  0
   -0.8450    0.7030    0.3950 N   0  0  0  0  0  0  0  0  0  0  0  0
   -3.2200    0.1380    0.3090 C   0  0  0  0  0  0  0  0  0  0  0  0
   -4.5950    0.0650    2.2590 C   0  0  0  0  0  0  0  0  0  0  0  0
   -5.5800   -0.4350    0.1290 C   0  0  0  0  0  0  0  0  0  0  0  0
   -4.3370   -0.2240   -0.4870 C   0  0  0  0  0  0  0  0  0  0  0  0
   -1.9170    0.1870   -1.7040 C   0  0  0  0  0  0  0  0  0  0  0  0
    3.9530    3.9190    0.3420 H   0  0  0  0  0  0  0  0  0  0  0  0
    3.4880    2.8610    1.6980 H   0  0  0  0  0  0  0  0  0  0  0  0
    1.4990    3.6960    0.3930 H   0  0  0  0  0  0  0  0  0  0  0  0
    2.1360    2.8570   -1.0450 H   0  0  0  0  0  0  0  0  0  0  0  0
    1.2520    1.6240    1.5980 H   0  0  0  0  0  0  0  0  0  0  0  0
   -4.9990   -0.6340   -2.4980 H   0  0  0  0  0  0  0  0  0  0  0  0
   -6.6500   -0.4540    1.9520 H   0  0  0  0  0  0  0  0  0  0  0  0
   -2.5300    0.5540    2.3090 H   0  0  0  0  0  0  0  0  0  0  0  0
    5.7070   -0.2510   -0.2710 H   0  0  0  0  0  0  0  0  0  0  0  0
    4.8460   -2.5530   -0.2360 H   0  0  0  0  0  0  0  0  0  0  0  0
    0.9150   -1.0730    0.4990 H   0  0  0  0  0  0  0  0  0  0  0  0
   -0.8130    0.5410    1.3510 H   0  0  0  0  0  0  0  0  0  0  0  0
   -4.7140    0.1740    3.3270 H   0  0  0  0  0  0  0  0  0  0  0  0
   -6.4400   -0.7120   -0.4620 H   0  0  0  0  0  0  0  0  0  0  0  0
   -0.9760    0.3430   -2.2100 H   0  0  0  0  0  0  0  0  0  0  0  0
  1  7  2  0  0  0  0
  1 24  1  0  0  0  0
  7 23  1  0  0  0  0
  6 24  2  0  0  0  0
 22 23  2  0  0  0  0
 20 23  1  0  0  0  0
  6 20  1  0  0  0  0
  6 19  1  0  0  0  0
  8 22  1  0  0  0  0
  9 20  2  0  0  0  0
  5 19  1  0  0  0  0
 17 18  1  0  0  0  0
  5 11  2  0  0  0  0
  8 21  2  0  0  0  0
  4  5  1  0  0  0  0
  9 21  1  0  0  0  0
 16 17  2  0  0  0  0
 10 16  1  0  0  0  0
 15 17  1  0  0  0  0
  4 10  1  0  0  0  0
  3  4  1  0  0  0  0
 10 13  2  0  0  0  0
 14 15  2  0  0  0  0
 13 14  1  0  0  0  0
 12 13  1  0  0  0  0
  2  3  1  0  0  0  0
  2 12  1  0  0  0  0
  2 25  1  0  0  0  0
  2 26  1  0  0  0  0
  3 27  1  0  0  0  0
  3 28  1  0  0  0  0
  4 29  1  0  0  0  0
  7 30  1  0  0  0  0
  8 31  1  0  0  0  0
  9 32  1  0  0  0  0
 14 33  1  0  0  0  0
 15 34  1  0  0  0  0
 16 35  1  0  0  0  0
 19 36  1  0  0  0  0
 21 37  1  0  0  0  0
 22 38  1  0  0  0  0
 24 39  1  0  0  0  0
M  END
> <OPENEYE_ISO_SMILES>
c1ccc2c(c1)cncc2NC(=O)[C@@H]3CCOc4c3cc(cc4)Cl

> <OPENEYE_INCHI>
InChI=1S/C19H15ClN2O2/c20-13-5-6-18-16(9-13)15(7-8-24-18)19(23)22-17-11-21-10-12-3-1-2-4-14(12)17/h1-6,9-11,15H,7-8H2,(H,22,23)/t15-/m1/s1

> <OPENEYE_INCHIKEY>
QRUNNMAOPKEFMJ-OAHLLOKOSA-N

> <FORMULA>
C19H15ClN2O2

$$$$
