NU0
  -OEChem-05102419323D

 33 35  0     0  0  0  0  0  0999 V2000
   -2.7070   -2.4260   -0.5500 N   0  0  0  0  0  0  0  0  0  0  0  0
    2.5650    1.0680    0.1140 C   0  0  0  0  0  0  0  0  0  0  0  0
    1.2640    1.3740    0.8110 C   0  0  0  0  0  0  0  0  0  0  0  0
    0.2040    0.4110    0.3410 C   0  0  0  0  0  0  0  0  0  0  0  0
   -2.0520   -0.3340    0.3310 C   0  0  0  0  0  0  0  0  0  0  0  0
   -1.7680   -1.6240   -0.0720 C   0  0  0  0  0  0  0  0  0  0  0  0
   -4.3580   -0.7700   -0.2970 C   0  0  0  0  0  0  0  0  0  0  0  0
   -3.7790    1.4110    0.6010 C   0  0  0  0  0  0  0  0  0  0  0  0
    3.4530    0.1690    0.6740 C   0  0  0  0  0  0  0  0  0  0  0  0
    0.4780   -0.4400   -0.4780 O   0  0  0  0  0  0  0  0  0  0  0  0
    2.8670    1.6810   -1.0870 C   0  0  0  0  0  0  0  0  0  0  0  0
    4.0600    1.4000   -1.7270 C   0  0  0  0  0  0  0  0  0  0  0  0
    4.9510    0.5050   -1.1650 C   0  0  0  0  0  0  0  0  0  0  0  0
    4.6450   -0.1170    0.0320 C   0  0  0  0  0  0  0  0  0  0  0  0
    5.7610   -1.2450    0.7350 Cl  0  0  0  0  0  0  0  0  0  0  0  0
   -1.0480    0.4960    0.8320 N   0  0  0  0  0  0  0  0  0  0  0  0
   -3.3820    0.1230    0.2220 C   0  0  0  0  0  0  0  0  0  0  0  0
   -5.0360    1.7690    0.4720 N   0  0  0  0  0  0  0  0  0  0  0  0
   -5.9680    0.9590   -0.0090 C   0  0  0  0  0  0  0  0  0  0  0  0
   -5.6820   -0.3140   -0.4050 C   0  0  0  0  0  0  0  0  0  0  0  0
   -3.9620   -2.0600   -0.6760 C   0  0  0  0  0  0  0  0  0  0  0  0
    1.3950    1.2730    1.8880 H   0  0  0  0  0  0  0  0  0  0  0  0
    0.9580    2.3940    0.5760 H   0  0  0  0  0  0  0  0  0  0  0  0
   -0.7540   -1.9880    0.0050 H   0  0  0  0  0  0  0  0  0  0  0  0
   -3.0550    2.1060    0.9980 H   0  0  0  0  0  0  0  0  0  0  0  0
    3.2170   -0.3100    1.6130 H   0  0  0  0  0  0  0  0  0  0  0  0
    2.1710    2.3800   -1.5260 H   0  0  0  0  0  0  0  0  0  0  0  0
    4.2950    1.8790   -2.6650 H   0  0  0  0  0  0  0  0  0  0  0  0
    5.8830    0.2850   -1.6650 H   0  0  0  0  0  0  0  0  0  0  0  0
   -1.2530    1.1340    1.5330 H   0  0  0  0  0  0  0  0  0  0  0  0
   -6.9840    1.3160   -0.0880 H   0  0  0  0  0  0  0  0  0  0  0  0
   -6.4570   -0.9580   -0.7940 H   0  0  0  0  0  0  0  0  0  0  0  0
   -4.6890   -2.7530   -1.0720 H   0  0  0  0  0  0  0  0  0  0  0  0
  1 21  2  0  0  0  0
  1  6  1  0  0  0  0
  7 21  1  0  0  0  0
  5  6  2  0  0  0  0
  7 20  2  0  0  0  0
  7 17  1  0  0  0  0
  5 17  1  0  0  0  0
  5 16  1  0  0  0  0
 19 20  1  0  0  0  0
  8 17  2  0  0  0  0
  4 16  1  0  0  0  0
 14 15  1  0  0  0  0
 18 19  2  0  0  0  0
  4 10  2  0  0  0  0
  3  4  1  0  0  0  0
  8 18  1  0  0  0  0
  9 14  2  0  0  0  0
  2  9  1  0  0  0  0
 13 14  1  0  0  0  0
  2  3  1  0  0  0  0
  2 11  2  0  0  0  0
 12 13  2  0  0  0  0
 11 12  1  0  0  0  0
  3 22  1  0  0  0  0
  3 23  1  0  0  0  0
  6 24  1  0  0  0  0
  8 25  1  0  0  0  0
  9 26  1  0  0  0  0
 11 27  1  0  0  0  0
 12 28  1  0  0  0  0
 13 29  1  0  0  0  0
 16 30  1  0  0  0  0
 19 31  1  0  0  0  0
 20 32  1  0  0  0  0
 21 33  1  0  0  0  0
M  END
> <OPENEYE_ISO_SMILES>
c1cc(cc(c1)Cl)CC(=O)Nc2cncc3c2cncc3

> <OPENEYE_INCHI>
InChI=1S/C16H12ClN3O/c17-13-3-1-2-11(6-13)7-16(21)20-15-10-19-8-12-4-5-18-9-14(12)15/h1-6,8-10H,7H2,(H,20,21)

> <OPENEYE_INCHIKEY>
VQNYZMIKTVJRNS-UHFFFAOYSA-N

> <FORMULA>
C16H12ClN3O

$$$$
