NUR
  -OEChem-05102419323D

 37 39  0     0  0  0  0  0  0999 V2000
   -3.8810    1.7380    1.3470 N   0  0  0  0  0  0  0  0  0  0  0  0
    3.1580    1.9380    0.2430 C   0  0  0  0  0  0  0  0  0  0  0  0
    4.2960    1.6690    0.9810 C   0  0  0  0  0  0  0  0  0  0  0  0
    4.8380    0.3980    0.9770 C   0  0  0  0  0  0  0  0  0  0  0  0
    4.2400   -0.6060    0.2360 C   0  0  0  0  0  0  0  0  0  0  0  0
    3.1010   -0.3360   -0.5010 C   0  0  0  0  0  0  0  0  0  0  0  0
   -2.8090    1.9430    0.5960 C   0  0  0  0  0  0  0  0  0  0  0  0
   -4.6460   -1.7690    0.7110 C   0  0  0  0  0  0  0  0  0  0  0  0
   -3.0190   -2.6180   -0.8340 C   0  0  0  0  0  0  0  0  0  0  0  0
   -2.8750   -0.3350   -0.1490 C   0  0  0  0  0  0  0  0  0  0  0  0
    4.9190   -2.2040    0.2310 Cl  0  0  0  0  0  0  0  0  0  0  0  0
    2.5580    0.9350   -0.4930 C   0  0  0  0  0  0  0  0  0  0  0  0
    1.3170    1.2290   -1.2960 C   0  0  0  0  0  0  0  0  0  0  0  0
    0.0970    0.9750   -0.4480 C   0  0  0  0  0  0  0  0  0  0  0  0
    0.2230    0.5930    0.6970 O   0  0  0  0  0  0  0  0  0  0  0  0
   -1.1330    1.1730   -0.9600 N   0  0  0  0  0  0  0  0  0  0  0  0
   -1.2860    1.6350   -2.3420 C   0  0  0  0  0  0  0  0  0  0  0  0
   -2.2630    0.9380   -0.1740 C   0  0  0  0  0  0  0  0  0  0  0  0
   -2.3860   -1.4120   -0.9000 C   0  0  0  0  0  0  0  0  0  0  0  0
   -4.1440   -2.7940   -0.0320 C   0  0  0  0  0  0  0  0  0  0  0  0
   -4.0200   -0.5130    0.6680 C   0  0  0  0  0  0  0  0  0  0  0  0
   -4.4940    0.5800    1.4130 C   0  0  0  0  0  0  0  0  0  0  0  0
    2.7350    2.9320    0.2470 H   0  0  0  0  0  0  0  0  0  0  0  0
    4.7630    2.4530    1.5590 H   0  0  0  0  0  0  0  0  0  0  0  0
    5.7270    0.1880    1.5530 H   0  0  0  0  0  0  0  0  0  0  0  0
    2.6340   -1.1200   -1.0800 H   0  0  0  0  0  0  0  0  0  0  0  0
   -2.3520    2.9220    0.5860 H   0  0  0  0  0  0  0  0  0  0  0  0
   -5.5190   -1.9210    1.3280 H   0  0  0  0  0  0  0  0  0  0  0  0
   -2.6430   -3.4480   -1.4130 H   0  0  0  0  0  0  0  0  0  0  0  0
    1.3280    2.2720   -1.6130 H   0  0  0  0  0  0  0  0  0  0  0  0
    1.2900    0.5820   -2.1730 H   0  0  0  0  0  0  0  0  0  0  0  0
   -1.3450    0.7740   -3.0090 H   0  0  0  0  0  0  0  0  0  0  0  0
   -2.1970    2.2260   -2.4300 H   0  0  0  0  0  0  0  0  0  0  0  0
   -0.4270    2.2480   -2.6170 H   0  0  0  0  0  0  0  0  0  0  0  0
   -1.5150   -1.2890   -1.5250 H   0  0  0  0  0  0  0  0  0  0  0  0
   -4.6260   -3.7600    0.0020 H   0  0  0  0  0  0  0  0  0  0  0  0
   -5.3640    0.4660    2.0420 H   0  0  0  0  0  0  0  0  0  0  0  0
  1 22  2  0  0  0  0
  1  7  1  0  0  0  0
 21 22  1  0  0  0  0
  7 18  2  0  0  0  0
  8 21  2  0  0  0  0
 10 21  1  0  0  0  0
  8 20  1  0  0  0  0
 10 18  1  0  0  0  0
 16 18  1  0  0  0  0
 10 19  2  0  0  0  0
  9 20  2  0  0  0  0
 14 16  1  0  0  0  0
 16 17  1  0  0  0  0
 14 15  2  0  0  0  0
  5 11  1  0  0  0  0
 13 14  1  0  0  0  0
  9 19  1  0  0  0  0
  5  6  2  0  0  0  0
  6 12  1  0  0  0  0
  4  5  1  0  0  0  0
 12 13  1  0  0  0  0
  2 12  2  0  0  0  0
  3  4  2  0  0  0  0
  2  3  1  0  0  0  0
  2 23  1  0  0  0  0
  3 24  1  0  0  0  0
  4 25  1  0  0  0  0
  6 26  1  0  0  0  0
  7 27  1  0  0  0  0
  8 28  1  0  0  0  0
  9 29  1  0  0  0  0
 13 30  1  0  0  0  0
 13 31  1  0  0  0  0
 17 32  1  0  0  0  0
 17 33  1  0  0  0  0
 17 34  1  0  0  0  0
 19 35  1  0  0  0  0
 20 36  1  0  0  0  0
 22 37  1  0  0  0  0
M  END
> <OPENEYE_ISO_SMILES>
CN(c1cncc2c1cccc2)C(=O)Cc3cccc(c3)Cl

> <OPENEYE_INCHI>
InChI=1S/C18H15ClN2O/c1-21(18(22)10-13-5-4-7-15(19)9-13)17-12-20-11-14-6-2-3-8-16(14)17/h2-9,11-12H,10H2,1H3

> <OPENEYE_INCHIKEY>
XFUDGCDECOIROA-UHFFFAOYSA-N

> <FORMULA>
C18H15ClN2O

$$$$
