NV9
  -OEChem-05102419323D

 38 40  0     0  0  0  0  0  0999 V2000
   -2.1700   -3.3470    0.6290 N   0  0  0  0  0  0  0  0  0  0  0  0
    2.7020    0.2870   -1.0120 C   0  0  0  0  0  0  0  0  0  0  0  0
    1.2650    0.6640   -1.2660 C   0  0  0  0  0  0  0  0  0  0  0  0
    0.3580   -0.3080   -0.5560 C   0  0  0  0  0  0  0  0  0  0  0  0
   -1.8210   -1.1320   -0.0800 C   0  0  0  0  0  0  0  0  0  0  0  0
   -1.3800   -2.4340    0.1000 C   0  0  0  0  0  0  0  0  0  0  0  0
   -3.9250   -1.8030    0.8650 C   0  0  0  0  0  0  0  0  0  0  0  0
   -2.9060    1.6680    0.5950 C   0  0  0  0  0  0  0  0  0  0  0  0
   -4.6140    3.1530   -0.1870 C   0  0  0  0  0  0  0  0  0  0  0  0
   -4.8780    0.7910   -0.4790 C   0  0  0  0  0  0  0  0  0  0  0  0
    0.8320   -1.2170    0.0920 O   0  0  0  0  0  0  0  0  0  0  0  0
    3.3490   -0.5850   -1.8680 C   0  0  0  0  0  0  0  0  0  0  0  0
    4.6670   -0.9300   -1.6370 C   0  0  0  0  0  0  0  0  0  0  0  0
    5.3390   -0.4050   -0.5490 C   0  0  0  0  0  0  0  0  0  0  0  0
    3.3740    0.8180    0.0720 C   0  0  0  0  0  0  0  0  0  0  0  0
    4.6920    0.4680    0.3080 C   0  0  0  0  0  0  0  0  0  0  0  0
    5.5370    1.1340    1.6700 Cl  0  0  0  0  0  0  0  0  0  0  0  0
   -0.9800   -0.1670   -0.6410 N   0  0  0  0  0  0  0  0  0  0  0  0
   -3.1280   -0.7990    0.3100 C   0  0  0  0  0  0  0  0  0  0  0  0
   -3.4030   -3.0720    1.0080 C   0  0  0  0  0  0  0  0  0  0  0  0
   -3.6470    0.5790    0.1390 C   0  0  0  0  0  0  0  0  0  0  0  0
   -5.3510    2.0770   -0.6470 C   0  0  0  0  0  0  0  0  0  0  0  0
   -3.3940    2.9480    0.4320 C   0  0  0  0  0  0  0  0  0  0  0  0
    1.0820    1.6710   -0.8920 H   0  0  0  0  0  0  0  0  0  0  0  0
    1.0640    0.6320   -2.3370 H   0  0  0  0  0  0  0  0  0  0  0  0
   -0.3760   -2.7030   -0.1960 H   0  0  0  0  0  0  0  0  0  0  0  0
   -4.9360   -1.5880    1.1790 H   0  0  0  0  0  0  0  0  0  0  0  0
   -1.9530    1.5090    1.0780 H   0  0  0  0  0  0  0  0  0  0  0  0
   -4.9920    4.1570   -0.3130 H   0  0  0  0  0  0  0  0  0  0  0  0
   -5.4550   -0.0490   -0.8390 H   0  0  0  0  0  0  0  0  0  0  0  0
    2.8240   -0.9960   -2.7180 H   0  0  0  0  0  0  0  0  0  0  0  0
    5.1720   -1.6120   -2.3050 H   0  0  0  0  0  0  0  0  0  0  0  0
    6.3690   -0.6750   -0.3680 H   0  0  0  0  0  0  0  0  0  0  0  0
    2.8690    1.4990    0.7410 H   0  0  0  0  0  0  0  0  0  0  0  0
   -1.3580    0.6040   -1.0910 H   0  0  0  0  0  0  0  0  0  0  0  0
   -4.0140   -3.8530    1.4360 H   0  0  0  0  0  0  0  0  0  0  0  0
   -6.2990    2.2430   -1.1380 H   0  0  0  0  0  0  0  0  0  0  0  0
   -2.8220    3.7930    0.7890 H   0  0  0  0  0  0  0  0  0  0  0  0
  1 20  2  0  0  0  0
  1  6  1  0  0  0  0
  7 20  1  0  0  0  0
  5  6  2  0  0  0  0
  7 19  2  0  0  0  0
  5 19  1  0  0  0  0
  5 18  1  0  0  0  0
 19 21  1  0  0  0  0
  4 18  1  0  0  0  0
 16 17  1  0  0  0  0
  4 11  2  0  0  0  0
 10 21  2  0  0  0  0
  8 21  1  0  0  0  0
  3  4  1  0  0  0  0
 10 22  1  0  0  0  0
 15 16  2  0  0  0  0
  2 15  1  0  0  0  0
 14 16  1  0  0  0  0
  8 23  2  0  0  0  0
  2  3  1  0  0  0  0
  2 12  2  0  0  0  0
 13 14  2  0  0  0  0
  9 22  2  0  0  0  0
  9 23  1  0  0  0  0
 12 13  1  0  0  0  0
  3 24  1  0  0  0  0
  3 25  1  0  0  0  0
  6 26  1  0  0  0  0
  7 27  1  0  0  0  0
  8 28  1  0  0  0  0
  9 29  1  0  0  0  0
 10 30  1  0  0  0  0
 12 31  1  0  0  0  0
 13 32  1  0  0  0  0
 14 33  1  0  0  0  0
 15 34  1  0  0  0  0
 18 35  1  0  0  0  0
 20 36  1  0  0  0  0
 22 37  1  0  0  0  0
 23 38  1  0  0  0  0
M  END
> <OPENEYE_ISO_SMILES>
c1ccc(cc1)c2ccncc2NC(=O)Cc3cccc(c3)Cl

> <OPENEYE_INCHI>
InChI=1S/C19H15ClN2O/c20-16-8-4-5-14(11-16)12-19(23)22-18-13-21-10-9-17(18)15-6-2-1-3-7-15/h1-11,13H,12H2,(H,22,23)

> <OPENEYE_INCHIKEY>
VSOZJTYJJHNDPD-UHFFFAOYSA-N

> <FORMULA>
C19H15ClN2O

$$$$
