NVO
  -OEChem-05102419323D

 33 35  0     0  0  0  0  0  0999 V2000
    1.7490    1.2890   -0.5450 N   0  0  0  0  0  0  0  0  0  0  0  0
   -2.6280   -1.0390   -0.3120 C   0  0  0  0  0  0  0  0  0  0  0  0
   -1.2840   -1.6200    0.0460 C   0  0  0  0  0  0  0  0  0  0  0  0
   -0.2140   -0.5800   -0.1670 C   0  0  0  0  0  0  0  0  0  0  0  0
    2.0610    0.0830   -0.1070 C   0  0  0  0  0  0  0  0  0  0  0  0
    3.9030    2.0530   -0.5340 C   0  0  0  0  0  0  0  0  0  0  0  0
    5.7270    0.5600    0.1840 C   0  0  0  0  0  0  0  0  0  0  0  0
    3.8420   -1.4630    0.6240 C   0  0  0  0  0  0  0  0  0  0  0  0
   -3.3800   -0.3940    0.6520 C   0  0  0  0  0  0  0  0  0  0  0  0
   -0.5140    0.5240   -0.5700 O   0  0  0  0  0  0  0  0  0  0  0  0
   -3.1050   -1.1470   -1.6040 C   0  0  0  0  0  0  0  0  0  0  0  0
   -4.3370   -0.6140   -1.9340 C   0  0  0  0  0  0  0  0  0  0  0  0
   -5.0930    0.0270   -0.9700 C   0  0  0  0  0  0  0  0  0  0  0  0
   -4.6110    0.1440    0.3220 C   0  0  0  0  0  0  0  0  0  0  0  0
   -5.5570    0.9540    1.5310 Cl  0  0  0  0  0  0  0  0  0  0  0  0
    1.0750   -0.8770    0.0900 N   0  0  0  0  0  0  0  0  0  0  0  0
    3.4170   -0.2140    0.1580 C   0  0  0  0  0  0  0  0  0  0  0  0
    4.3720    0.8120   -0.0650 C   0  0  0  0  0  0  0  0  0  0  0  0
    2.6160    2.2100   -0.7440 N   0  0  0  0  0  0  0  0  0  0  0  0
    5.1680   -1.6750    0.8580 C   0  0  0  0  0  0  0  0  0  0  0  0
    6.1060   -0.6690    0.6370 C   0  0  0  0  0  0  0  0  0  0  0  0
   -1.2880   -1.9280    1.0920 H   0  0  0  0  0  0  0  0  0  0  0  0
   -1.0810   -2.4840   -0.5870 H   0  0  0  0  0  0  0  0  0  0  0  0
    4.5910    2.8650   -0.7180 H   0  0  0  0  0  0  0  0  0  0  0  0
    6.4640    1.3310    0.0180 H   0  0  0  0  0  0  0  0  0  0  0  0
    3.1250   -2.2510    0.8000 H   0  0  0  0  0  0  0  0  0  0  0  0
   -3.0070   -0.3100    1.6620 H   0  0  0  0  0  0  0  0  0  0  0  0
   -2.5150   -1.6480   -2.3580 H   0  0  0  0  0  0  0  0  0  0  0  0
   -4.7100   -0.6980   -2.9440 H   0  0  0  0  0  0  0  0  0  0  0  0
   -6.0550    0.4440   -1.2270 H   0  0  0  0  0  0  0  0  0  0  0  0
    1.3150   -1.7600    0.4120 H   0  0  0  0  0  0  0  0  0  0  0  0
    5.4970   -2.6380    1.2190 H   0  0  0  0  0  0  0  0  0  0  0  0
    7.1510   -0.8650    0.8300 H   0  0  0  0  0  0  0  0  0  0  0  0
  6 19  2  0  0  0  0
  1 19  1  0  0  0  0
  6 18  1  0  0  0  0
  1  5  2  0  0  0  0
  7 18  2  0  0  0  0
 17 18  1  0  0  0  0
  7 21  1  0  0  0  0
  5 17  1  0  0  0  0
  5 16  1  0  0  0  0
  8 17  2  0  0  0  0
  4 16  1  0  0  0  0
 20 21  2  0  0  0  0
  4 10  2  0  0  0  0
  3  4  1  0  0  0  0
 14 15  1  0  0  0  0
  8 20  1  0  0  0  0
  9 14  2  0  0  0  0
  2  9  1  0  0  0  0
 13 14  1  0  0  0  0
  2  3  1  0  0  0  0
  2 11  2  0  0  0  0
 12 13  2  0  0  0  0
 11 12  1  0  0  0  0
  3 22  1  0  0  0  0
  3 23  1  0  0  0  0
  6 24  1  0  0  0  0
  7 25  1  0  0  0  0
  8 26  1  0  0  0  0
  9 27  1  0  0  0  0
 11 28  1  0  0  0  0
 12 29  1  0  0  0  0
 13 30  1  0  0  0  0
 16 31  1  0  0  0  0
 20 32  1  0  0  0  0
 21 33  1  0  0  0  0
M  END
> <OPENEYE_ISO_SMILES>
c1ccc2c(c1)cnnc2NC(=O)Cc3cccc(c3)Cl

> <OPENEYE_INCHI>
InChI=1S/C16H12ClN3O/c17-13-6-3-4-11(8-13)9-15(21)19-16-14-7-2-1-5-12(14)10-18-20-16/h1-8,10H,9H2,(H,19,20,21)

> <OPENEYE_INCHIKEY>
ATNZGZHLHMEMFV-UHFFFAOYSA-N

> <FORMULA>
C16H12ClN3O

$$$$
