NW0
  -OEChem-05102419323D

 34 35  0     0  0  0  0  0  0999 V2000
   -2.2280    0.3700   -0.5670 N   0  0  0  0  0  0  0  0  0  0  0  0
   -3.7610   -1.1230    0.5650 C   0  0  0  0  0  0  0  0  0  0  0  0
   -3.5330   -0.0470   -0.2830 C   0  0  0  0  0  0  0  0  0  0  0  0
   -1.2330    0.1070    0.3030 C   0  0  0  0  0  0  0  0  0  0  0  0
    0.1920    0.4410   -0.0580 C   0  0  0  0  0  0  0  0  0  0  0  0
    1.1170    0.0450    1.0940 C   0  0  0  0  0  0  0  0  0  0  0  0
    3.0610    1.6200    1.0470 C   0  0  0  0  0  0  0  0  0  0  0  0
    4.6350   -0.2500   -0.2450 C   0  0  0  0  0  0  0  0  0  0  0  0
    5.6230   -1.4240   -1.0570 Cl  0  0  0  0  0  0  0  0  0  0  0  0
    5.1550    0.9930    0.0700 C   0  0  0  0  0  0  0  0  0  0  0  0
    4.3680    1.9270    0.7160 C   0  0  0  0  0  0  0  0  0  0  0  0
    3.3280   -0.5560    0.0860 C   0  0  0  0  0  0  0  0  0  0  0  0
    2.5410    0.3790    0.7330 C   0  0  0  0  0  0  0  0  0  0  0  0
   -1.4830   -0.3980    1.3770 O   0  0  0  0  0  0  0  0  0  0  0  0
   -4.6240    0.6130   -0.8450 C   0  0  0  0  0  0  0  0  0  0  0  0
   -4.4240    1.7850   -1.7710 C   0  0  0  0  0  0  0  0  0  0  0  0
   -4.9890   -1.5210    0.8310 N   0  0  0  0  0  0  0  0  0  0  0  0
   -6.0420   -0.9210    0.3100 C   0  0  0  0  0  0  0  0  0  0  0  0
   -5.8970    0.1640   -0.5340 C   0  0  0  0  0  0  0  0  0  0  0  0
   -2.0390    0.8440   -1.3920 H   0  0  0  0  0  0  0  0  0  0  0  0
   -2.9230   -1.6420    1.0070 H   0  0  0  0  0  0  0  0  0  0  0  0
    0.4760   -0.1060   -0.9570 H   0  0  0  0  0  0  0  0  0  0  0  0
    0.2780    1.5120   -0.2420 H   0  0  0  0  0  0  0  0  0  0  0  0
    0.8320    0.5920    1.9930 H   0  0  0  0  0  0  0  0  0  0  0  0
    1.0300   -1.0260    1.2780 H   0  0  0  0  0  0  0  0  0  0  0  0
    2.4480    2.3490    1.5560 H   0  0  0  0  0  0  0  0  0  0  0  0
    6.1750    1.2330   -0.1890 H   0  0  0  0  0  0  0  0  0  0  0  0
    4.7740    2.8970    0.9630 H   0  0  0  0  0  0  0  0  0  0  0  0
    2.9210   -1.5260   -0.1600 H   0  0  0  0  0  0  0  0  0  0  0  0
   -4.3470    1.4280   -2.7980 H   0  0  0  0  0  0  0  0  0  0  0  0
   -5.2710    2.4650   -1.6850 H   0  0  0  0  0  0  0  0  0  0  0  0
   -3.5080    2.3100   -1.4990 H   0  0  0  0  0  0  0  0  0  0  0  0
   -7.0320   -1.2780    0.5540 H   0  0  0  0  0  0  0  0  0  0  0  0
   -6.7650    0.6480   -0.9550 H   0  0  0  0  0  0  0  0  0  0  0  0
 17 18  2  0  0  0  0
  2 17  1  0  0  0  0
 18 19  1  0  0  0  0
  2  3  2  0  0  0  0
 15 19  2  0  0  0  0
  3 15  1  0  0  0  0
  1  3  1  0  0  0  0
 15 16  1  0  0  0  0
  1  4  1  0  0  0  0
  4 14  2  0  0  0  0
  4  5  1  0  0  0  0
  5  6  1  0  0  0  0
  6 13  1  0  0  0  0
  7 13  2  0  0  0  0
  7 11  1  0  0  0  0
 12 13  1  0  0  0  0
 10 11  2  0  0  0  0
  8 12  2  0  0  0  0
  8 10  1  0  0  0  0
  8  9  1  0  0  0  0
  1 20  1  0  0  0  0
  2 21  1  0  0  0  0
  5 22  1  0  0  0  0
  5 23  1  0  0  0  0
  6 24  1  0  0  0  0
  6 25  1  0  0  0  0
  7 26  1  0  0  0  0
 10 27  1  0  0  0  0
 11 28  1  0  0  0  0
 12 29  1  0  0  0  0
 16 30  1  0  0  0  0
 16 31  1  0  0  0  0
 16 32  1  0  0  0  0
 18 33  1  0  0  0  0
 19 34  1  0  0  0  0
M  END
> <OPENEYE_ISO_SMILES>
Cc1ccncc1NC(=O)CCc2cccc(c2)Cl

> <OPENEYE_INCHI>
InChI=1S/C15H15ClN2O/c1-11-7-8-17-10-14(11)18-15(19)6-5-12-3-2-4-13(16)9-12/h2-4,7-10H,5-6H2,1H3,(H,18,19)

> <OPENEYE_INCHIKEY>
CQMIDRCPLJZCFD-UHFFFAOYSA-N

> <FORMULA>
C15H15ClN2O

$$$$
