NWI
  -OEChem-05102419323D

 33 35  0     0  0  0  0  0  0999 V2000
   -2.7130   -2.4180   -0.5520 N   0  0  0  0  0  0  0  0  0  0  0  0
    2.5620    1.0680    0.1160 C   0  0  0  0  0  0  0  0  0  0  0  0
    1.2620    1.3760    0.8130 C   0  0  0  0  0  0  0  0  0  0  0  0
    0.2000    0.4150    0.3420 C   0  0  0  0  0  0  0  0  0  0  0  0
   -2.0580   -0.3280    0.3300 C   0  0  0  0  0  0  0  0  0  0  0  0
   -1.7740   -1.6150   -0.0720 C   0  0  0  0  0  0  0  0  0  0  0  0
   -4.3630   -0.7570   -0.2950 C   0  0  0  0  0  0  0  0  0  0  0  0
   -4.9820    1.7780    0.4860 C   0  0  0  0  0  0  0  0  0  0  0  0
    3.4490    0.1670    0.6740 C   0  0  0  0  0  0  0  0  0  0  0  0
    0.4730   -0.4360   -0.4780 O   0  0  0  0  0  0  0  0  0  0  0  0
    2.8650    1.6820   -1.0850 C   0  0  0  0  0  0  0  0  0  0  0  0
    4.0570    1.4000   -1.7250 C   0  0  0  0  0  0  0  0  0  0  0  0
    4.9470    0.5030   -1.1650 C   0  0  0  0  0  0  0  0  0  0  0  0
    4.6400   -0.1200    0.0320 C   0  0  0  0  0  0  0  0  0  0  0  0
    5.7550   -1.2510    0.7330 Cl  0  0  0  0  0  0  0  0  0  0  0  0
   -1.0520    0.5010    0.8330 N   0  0  0  0  0  0  0  0  0  0  0  0
   -3.3890    0.1350    0.2230 C   0  0  0  0  0  0  0  0  0  0  0  0
   -3.7410    1.3650    0.5930 N   0  0  0  0  0  0  0  0  0  0  0  0
   -5.9880    0.9550   -0.0150 C   0  0  0  0  0  0  0  0  0  0  0  0
   -5.6940   -0.3200   -0.4120 C   0  0  0  0  0  0  0  0  0  0  0  0
   -3.9670   -2.0490   -0.6760 C   0  0  0  0  0  0  0  0  0  0  0  0
    1.3940    1.2730    1.8900 H   0  0  0  0  0  0  0  0  0  0  0  0
    0.9570    2.3960    0.5800 H   0  0  0  0  0  0  0  0  0  0  0  0
   -0.7600   -1.9790    0.0050 H   0  0  0  0  0  0  0  0  0  0  0  0
   -5.2310    2.7820    0.7960 H   0  0  0  0  0  0  0  0  0  0  0  0
    3.2130   -0.3130    1.6130 H   0  0  0  0  0  0  0  0  0  0  0  0
    2.1700    2.3830   -1.5230 H   0  0  0  0  0  0  0  0  0  0  0  0
    4.2930    1.8800   -2.6630 H   0  0  0  0  0  0  0  0  0  0  0  0
    5.8780    0.2820   -1.6660 H   0  0  0  0  0  0  0  0  0  0  0  0
   -1.2550    1.1390    1.5350 H   0  0  0  0  0  0  0  0  0  0  0  0
   -7.0000    1.3240   -0.0900 H   0  0  0  0  0  0  0  0  0  0  0  0
   -6.4610   -0.9710   -0.8030 H   0  0  0  0  0  0  0  0  0  0  0  0
   -4.6950   -2.7400   -1.0730 H   0  0  0  0  0  0  0  0  0  0  0  0
  1 21  2  0  0  0  0
  1  6  1  0  0  0  0
  7 21  1  0  0  0  0
  5  6  2  0  0  0  0
  7 20  2  0  0  0  0
  7 17  1  0  0  0  0
 19 20  1  0  0  0  0
  5 17  1  0  0  0  0
  5 16  1  0  0  0  0
 17 18  2  0  0  0  0
  4 16  1  0  0  0  0
  8 19  2  0  0  0  0
 14 15  1  0  0  0  0
  4 10  2  0  0  0  0
  3  4  1  0  0  0  0
  8 18  1  0  0  0  0
  9 14  2  0  0  0  0
  2  9  1  0  0  0  0
 13 14  1  0  0  0  0
  2  3  1  0  0  0  0
  2 11  2  0  0  0  0
 12 13  2  0  0  0  0
 11 12  1  0  0  0  0
  3 22  1  0  0  0  0
  3 23  1  0  0  0  0
  6 24  1  0  0  0  0
  8 25  1  0  0  0  0
  9 26  1  0  0  0  0
 11 27  1  0  0  0  0
 12 28  1  0  0  0  0
 13 29  1  0  0  0  0
 16 30  1  0  0  0  0
 19 31  1  0  0  0  0
 20 32  1  0  0  0  0
 21 33  1  0  0  0  0
M  END
> <OPENEYE_ISO_SMILES>
c1cc(cc(c1)Cl)CC(=O)Nc2cncc3c2nccc3

> <OPENEYE_INCHI>
InChI=1S/C16H12ClN3O/c17-13-5-1-3-11(7-13)8-15(21)20-14-10-18-9-12-4-2-6-19-16(12)14/h1-7,9-10H,8H2,(H,20,21)

> <OPENEYE_INCHIKEY>
AFQAFSYTYCJOEN-UHFFFAOYSA-N

> <FORMULA>
C16H12ClN3O

$$$$
