NX9
  -OEChem-05102419323D

 26 27  0     0  0  0  0  0  0999 V2000
   -5.3670    0.6860    0.2210 N   0  0  0  0  0  0  0  0  0  0  0  0
    1.3780   -0.9980   -0.4330 C   0  0  0  0  0  0  0  0  0  0  0  0
    0.1010   -1.2240   -1.2020 C   0  0  0  0  0  0  0  0  0  0  0  0
   -1.0440   -0.5640   -0.4780 C   0  0  0  0  0  0  0  0  0  0  0  0
   -3.3620   -0.0190   -0.3080 C   0  0  0  0  0  0  0  0  0  0  0  0
   -4.6600   -0.0130   -0.7040 C   0  0  0  0  0  0  0  0  0  0  0  0
    2.1520    0.1170   -0.6920 C   0  0  0  0  0  0  0  0  0  0  0  0
   -0.8440    0.0310    0.5590 O   0  0  0  0  0  0  0  0  0  0  0  0
    1.7710   -1.9030    0.5340 C   0  0  0  0  0  0  0  0  0  0  0  0
    2.9410   -1.6960    1.2410 C   0  0  0  0  0  0  0  0  0  0  0  0
    3.7190   -0.5840    0.9790 C   0  0  0  0  0  0  0  0  0  0  0  0
    3.3210    0.3270    0.0170 C   0  0  0  0  0  0  0  0  0  0  0  0
    4.2940    1.7280   -0.3080 Cl  0  0  0  0  0  0  0  0  0  0  0  0
   -2.2920   -0.6350   -0.9840 N   0  0  0  0  0  0  0  0  0  0  0  0
   -3.2760    0.6980    0.8940 C   0  0  0  0  0  0  0  0  0  0  0  0
   -4.4740    1.1190    1.2090 N   0  0  0  0  0  0  0  0  0  0  0  0
   -6.3220    0.8590    0.1990 H   0  0  0  0  0  0  0  0  0  0  0  0
    0.1970   -0.7940   -2.1990 H   0  0  0  0  0  0  0  0  0  0  0  0
   -0.0890   -2.2940   -1.2840 H   0  0  0  0  0  0  0  0  0  0  0  0
   -5.0580   -0.4800   -1.5930 H   0  0  0  0  0  0  0  0  0  0  0  0
    1.8450    0.8240   -1.4490 H   0  0  0  0  0  0  0  0  0  0  0  0
    1.1630   -2.7720    0.7390 H   0  0  0  0  0  0  0  0  0  0  0  0
    3.2480   -2.4030    1.9970 H   0  0  0  0  0  0  0  0  0  0  0  0
    4.6330   -0.4220    1.5310 H   0  0  0  0  0  0  0  0  0  0  0  0
   -2.4520   -1.1110   -1.8140 H   0  0  0  0  0  0  0  0  0  0  0  0
   -2.3750    0.8730    1.4630 H   0  0  0  0  0  0  0  0  0  0  0  0
  1 16  1  0  0  0  0
  1  6  1  0  0  0  0
 15 16  2  0  0  0  0
  5  6  2  0  0  0  0
  5 15  1  0  0  0  0
  5 14  1  0  0  0  0
  4  8  2  0  0  0  0
  4 14  1  0  0  0  0
 12 13  1  0  0  0  0
  3  4  1  0  0  0  0
  7 12  2  0  0  0  0
  2  7  1  0  0  0  0
 11 12  1  0  0  0  0
  2  3  1  0  0  0  0
  2  9  2  0  0  0  0
 10 11  2  0  0  0  0
  9 10  1  0  0  0  0
  1 17  1  0  0  0  0
  3 18  1  0  0  0  0
  3 19  1  0  0  0  0
  6 20  1  0  0  0  0
  7 21  1  0  0  0  0
  9 22  1  0  0  0  0
 10 23  1  0  0  0  0
 11 24  1  0  0  0  0
 14 25  1  0  0  0  0
 15 26  1  0  0  0  0
M  END
> <OPENEYE_ISO_SMILES>
c1cc(cc(c1)Cl)CC(=O)Nc2c[nH]nc2

> <OPENEYE_INCHI>
InChI=1S/C11H10ClN3O/c12-9-3-1-2-8(4-9)5-11(16)15-10-6-13-14-7-10/h1-4,6-7H,5H2,(H,13,14)(H,15,16)

> <OPENEYE_INCHIKEY>
SDKQWVALTYIIDW-UHFFFAOYSA-N

> <FORMULA>
C11H10ClN3O

$$$$
