NZK
  -OEChem-05102419323D

 43 45  0     0  0  0  0  0  0999 V2000
   -2.1980   -0.4040   -0.6990 N   0  0  0  0  0  0  0  0  0  0  0  0
    3.4520    2.3340   -0.5910 N   0  0  0  0  0  0  0  0  0  0  0  0
   -0.9410   -1.1570   -0.8130 C   0  0  0  0  0  0  0  0  0  0  0  0
    0.2210   -0.2410   -0.5260 C   0  0  0  0  0  0  0  0  0  0  0  0
    2.5620    0.1550   -0.4220 C   0  0  0  0  0  0  0  0  0  0  0  0
    2.4370    1.4930   -0.7270 C   0  0  0  0  0  0  0  0  0  0  0  0
    4.6340    1.9600   -0.1620 C   0  0  0  0  0  0  0  0  0  0  0  0
    6.1200    0.1760    0.6410 C   0  0  0  0  0  0  0  0  0  0  0  0
    4.0230   -1.6580    0.3790 C   0  0  0  0  0  0  0  0  0  0  0  0
   -3.3310   -1.1930   -1.1990 C   0  0  0  0  0  0  0  0  0  0  0  0
    0.0220    0.9240   -0.2540 O   0  0  0  0  0  0  0  0  0  0  0  0
    1.4810   -0.7170   -0.5730 N   0  0  0  0  0  0  0  0  0  0  0  0
    3.8090   -0.3150    0.0460 C   0  0  0  0  0  0  0  0  0  0  0  0
    5.2500   -2.0520    0.8250 C   0  0  0  0  0  0  0  0  0  0  0  0
    6.2930   -1.1380    0.9560 C   0  0  0  0  0  0  0  0  0  0  0  0
    4.8700    0.6170    0.1780 C   0  0  0  0  0  0  0  0  0  0  0  0
   -2.4240    0.0360    0.6840 C   0  0  0  0  0  0  0  0  0  0  0  0
   -3.6410    0.9660    0.7280 C   0  0  0  0  0  0  0  0  0  0  0  0
   -4.5860   -0.3140   -1.2330 C   0  0  0  0  0  0  0  0  0  0  0  0
   -4.7790    0.2750    0.1010 N   0  0  0  0  0  0  0  0  0  0  0  0
   -5.9660    0.1860    0.7320 C   0  0  0  0  0  0  0  0  0  0  0  0
   -6.1350    0.7520    1.7910 O   0  0  0  0  0  0  0  0  0  0  0  0
   -7.0850   -0.6190    0.1220 C   0  0  0  0  0  0  0  0  0  0  0  0
   -0.9430   -1.9770   -0.0960 H   0  0  0  0  0  0  0  0  0  0  0  0
   -0.8480   -1.5570   -1.8230 H   0  0  0  0  0  0  0  0  0  0  0  0
    1.4890    1.8660   -1.0860 H   0  0  0  0  0  0  0  0  0  0  0  0
    5.4280    2.6860   -0.0690 H   0  0  0  0  0  0  0  0  0  0  0  0
    6.9380    0.8730    0.7470 H   0  0  0  0  0  0  0  0  0  0  0  0
    3.2230   -2.3770    0.2830 H   0  0  0  0  0  0  0  0  0  0  0  0
   -3.1100   -1.5500   -2.2050 H   0  0  0  0  0  0  0  0  0  0  0  0
   -3.5010   -2.0450   -0.5400 H   0  0  0  0  0  0  0  0  0  0  0  0
    1.6370   -1.6640   -0.7110 H   0  0  0  0  0  0  0  0  0  0  0  0
    5.4150   -3.0880    1.0810 H   0  0  0  0  0  0  0  0  0  0  0  0
    7.2550   -1.4770    1.3110 H   0  0  0  0  0  0  0  0  0  0  0  0
   -2.6060   -0.8320    1.3170 H   0  0  0  0  0  0  0  0  0  0  0  0
   -1.5450    0.5710    1.0430 H   0  0  0  0  0  0  0  0  0  0  0  0
   -3.8830    1.2040    1.7630 H   0  0  0  0  0  0  0  0  0  0  0  0
   -3.4220    1.8820    0.1800 H   0  0  0  0  0  0  0  0  0  0  0  0
   -4.4580    0.4790   -1.9690 H   0  0  0  0  0  0  0  0  0  0  0  0
   -5.4520   -0.9230   -1.4930 H   0  0  0  0  0  0  0  0  0  0  0  0
   -6.7820   -0.9740   -0.8630 H   0  0  0  0  0  0  0  0  0  0  0  0
   -7.3100   -1.4720    0.7620 H   0  0  0  0  0  0  0  0  0  0  0  0
   -7.9720    0.0070    0.0250 H   0  0  0  0  0  0  0  0  0  0  0  0
  2  7  2  0  0  0  0
  2  6  1  0  0  0  0
  7 16  1  0  0  0  0
  5  6  2  0  0  0  0
  8 16  2  0  0  0  0
 13 16  1  0  0  0  0
  8 15  1  0  0  0  0
  5 13  1  0  0  0  0
  5 12  1  0  0  0  0
  9 13  2  0  0  0  0
  4 12  1  0  0  0  0
 14 15  2  0  0  0  0
  4 11  2  0  0  0  0
  3  4  1  0  0  0  0
  9 14  1  0  0  0  0
  1  3  1  0  0  0  0
  1 10  1  0  0  0  0
  1 17  1  0  0  0  0
 10 19  1  0  0  0  0
 17 18  1  0  0  0  0
 19 20  1  0  0  0  0
 18 20  1  0  0  0  0
 20 21  1  0  0  0  0
 21 23  1  0  0  0  0
 21 22  2  0  0  0  0
  3 24  1  0  0  0  0
  3 25  1  0  0  0  0
  6 26  1  0  0  0  0
  7 27  1  0  0  0  0
  8 28  1  0  0  0  0
  9 29  1  0  0  0  0
 10 30  1  0  0  0  0
 10 31  1  0  0  0  0
 12 32  1  0  0  0  0
 14 33  1  0  0  0  0
 15 34  1  0  0  0  0
 17 35  1  0  0  0  0
 17 36  1  0  0  0  0
 18 37  1  0  0  0  0
 18 38  1  0  0  0  0
 19 39  1  0  0  0  0
 19 40  1  0  0  0  0
 23 41  1  0  0  0  0
 23 42  1  0  0  0  0
 23 43  1  0  0  0  0
M  END
> <OPENEYE_ISO_SMILES>
CC(=O)N1CCN(CC1)CC(=O)Nc2cncc3c2cccc3

> <OPENEYE_INCHI>
InChI=1S/C17H20N4O2/c1-13(22)21-8-6-20(7-9-21)12-17(23)19-16-11-18-10-14-4-2-3-5-15(14)16/h2-5,10-11H,6-9,12H2,1H3,(H,19,23)

> <OPENEYE_INCHIKEY>
SIFMSWJDYLFFPS-UHFFFAOYSA-N

> <FORMULA>
C17H20N4O2

$$$$
