O0C
  -OEChem-05102419323D

 33 35  0     0  0  0  0  0  0999 V2000
   -2.7080   -2.4170   -0.5490 N   0  0  0  0  0  0  0  0  0  0  0  0
    2.5720    1.0690    0.1160 C   0  0  0  0  0  0  0  0  0  0  0  0
    1.2710    1.3760    0.8120 C   0  0  0  0  0  0  0  0  0  0  0  0
    0.2100    0.4150    0.3430 C   0  0  0  0  0  0  0  0  0  0  0  0
   -2.0480   -0.3280    0.3330 C   0  0  0  0  0  0  0  0  0  0  0  0
   -1.7660   -1.6170   -0.0710 C   0  0  0  0  0  0  0  0  0  0  0  0
   -4.3570   -0.7590   -0.2920 C   0  0  0  0  0  0  0  0  0  0  0  0
   -3.7760    1.4180    0.6060 C   0  0  0  0  0  0  0  0  0  0  0  0
    3.4590    0.1680    0.6750 C   0  0  0  0  0  0  0  0  0  0  0  0
    0.4820   -0.4360   -0.4770 O   0  0  0  0  0  0  0  0  0  0  0  0
    2.8740    1.6820   -1.0860 C   0  0  0  0  0  0  0  0  0  0  0  0
    4.0660    1.4000   -1.7260 C   0  0  0  0  0  0  0  0  0  0  0  0
    4.9560    0.5030   -1.1660 C   0  0  0  0  0  0  0  0  0  0  0  0
    4.6500   -0.1190    0.0320 C   0  0  0  0  0  0  0  0  0  0  0  0
    5.7650   -1.2490    0.7330 Cl  0  0  0  0  0  0  0  0  0  0  0  0
   -1.0420    0.5010    0.8350 N   0  0  0  0  0  0  0  0  0  0  0  0
   -3.3770    0.1300    0.2260 C   0  0  0  0  0  0  0  0  0  0  0  0
   -5.0880    1.7620    0.4620 C   0  0  0  0  0  0  0  0  0  0  0  0
   -5.9840    0.9150   -0.0240 N   0  0  0  0  0  0  0  0  0  0  0  0
   -5.6810   -0.3060   -0.3990 C   0  0  0  0  0  0  0  0  0  0  0  0
   -3.9630   -2.0500   -0.6730 C   0  0  0  0  0  0  0  0  0  0  0  0
    1.4030    1.2740    1.8900 H   0  0  0  0  0  0  0  0  0  0  0  0
    0.9670    2.3970    0.5790 H   0  0  0  0  0  0  0  0  0  0  0  0
   -0.7530   -1.9840    0.0050 H   0  0  0  0  0  0  0  0  0  0  0  0
   -3.0620    2.1230    1.0050 H   0  0  0  0  0  0  0  0  0  0  0  0
    3.2230   -0.3110    1.6130 H   0  0  0  0  0  0  0  0  0  0  0  0
    2.1780    2.3820   -1.5240 H   0  0  0  0  0  0  0  0  0  0  0  0
    4.3020    1.8790   -2.6650 H   0  0  0  0  0  0  0  0  0  0  0  0
    5.8870    0.2820   -1.6670 H   0  0  0  0  0  0  0  0  0  0  0  0
   -1.2450    1.1400    1.5360 H   0  0  0  0  0  0  0  0  0  0  0  0
   -5.4060    2.7520    0.7530 H   0  0  0  0  0  0  0  0  0  0  0  0
   -6.4470   -0.9600   -0.7900 H   0  0  0  0  0  0  0  0  0  0  0  0
   -4.6910   -2.7420   -1.0690 H   0  0  0  0  0  0  0  0  0  0  0  0
  1 21  2  0  0  0  0
  1  6  1  0  0  0  0
  7 21  1  0  0  0  0
  5  6  2  0  0  0  0
  7 20  2  0  0  0  0
  7 17  1  0  0  0  0
 19 20  1  0  0  0  0
  5 17  1  0  0  0  0
  5 16  1  0  0  0  0
  8 17  2  0  0  0  0
  4 16  1  0  0  0  0
 18 19  2  0  0  0  0
 14 15  1  0  0  0  0
  4 10  2  0  0  0  0
  3  4  1  0  0  0  0
  8 18  1  0  0  0  0
  9 14  2  0  0  0  0
  2  9  1  0  0  0  0
 13 14  1  0  0  0  0
  2  3  1  0  0  0  0
  2 11  2  0  0  0  0
 12 13  2  0  0  0  0
 11 12  1  0  0  0  0
  3 22  1  0  0  0  0
  3 23  1  0  0  0  0
  6 24  1  0  0  0  0
  8 25  1  0  0  0  0
  9 26  1  0  0  0  0
 11 27  1  0  0  0  0
 12 28  1  0  0  0  0
 13 29  1  0  0  0  0
 16 30  1  0  0  0  0
 18 31  1  0  0  0  0
 20 32  1  0  0  0  0
 21 33  1  0  0  0  0
M  END
> <OPENEYE_ISO_SMILES>
c1cc(cc(c1)Cl)CC(=O)Nc2cncc3c2ccnc3

> <OPENEYE_INCHI>
InChI=1S/C16H12ClN3O/c17-13-3-1-2-11(6-13)7-16(21)20-15-10-19-9-12-8-18-5-4-14(12)15/h1-6,8-10H,7H2,(H,20,21)

> <OPENEYE_INCHIKEY>
ITQMQTJYJVFFAW-UHFFFAOYSA-N

> <FORMULA>
C16H12ClN3O

$$$$
