O0R
  -OEChem-05102419323D

 35 37  0     0  0  0  0  0  0999 V2000
   -2.8860   -2.6410   -0.4990 N   0  0  0  0  0  0  0  0  0  0  0  0
    2.2550    1.0630   -0.0050 C   0  0  0  0  0  0  0  0  0  0  0  0
    0.9190    1.3970    0.6070 C   0  0  0  0  0  0  0  0  0  0  0  0
   -0.0940    0.3580    0.2000 C   0  0  0  0  0  0  0  0  0  0  0  0
   -2.3290   -0.4590    0.1810 C   0  0  0  0  0  0  0  0  0  0  0  0
   -1.9830   -1.7790   -0.0750 C   0  0  0  0  0  0  0  0  0  0  0  0
   -4.5620   -0.9940   -0.4650 C   0  0  0  0  0  0  0  0  0  0  0  0
   -5.4750    1.7810   -0.1840 C   0  0  0  0  0  0  0  0  0  0  0  0
    3.1450    0.2550    0.6770 C   0  0  0  0  0  0  0  0  0  0  0  0
    0.2360   -0.5630   -0.5160 O   0  0  0  0  0  0  0  0  0  0  0  0
    2.5880    1.5600   -1.2510 C   0  0  0  0  0  0  0  0  0  0  0  0
    3.8130    1.2530   -1.8140 C   0  0  0  0  0  0  0  0  0  0  0  0
    4.7050    0.4490   -1.1300 C   0  0  0  0  0  0  0  0  0  0  0  0
    4.3690   -0.0570    0.1130 C   0  0  0  0  0  0  0  0  0  0  0  0
    5.4870   -1.0710    0.9700 Cl  0  0  0  0  0  0  0  0  0  0  0  0
   -1.3670    0.4520    0.6320 N   0  0  0  0  0  0  0  0  0  0  0  0
   -3.6470   -0.0550   -0.0180 C   0  0  0  0  0  0  0  0  0  0  0  0
   -4.0670    1.3670    0.2480 C   0  0  0  0  0  0  0  0  0  0  0  0
   -5.1540    1.5980    1.3010 C   0  0  0  0  0  0  0  0  0  0  0  0
   -4.1410   -2.2900   -0.6970 C   0  0  0  0  0  0  0  0  0  0  0  0
    1.0100    1.4110    1.6930 H   0  0  0  0  0  0  0  0  0  0  0  0
    0.5940    2.3770    0.2570 H   0  0  0  0  0  0  0  0  0  0  0  0
   -0.9640   -2.1040    0.0760 H   0  0  0  0  0  0  0  0  0  0  0  0
   -5.5920   -0.7160   -0.6310 H   0  0  0  0  0  0  0  0  0  0  0  0
   -5.6120    2.7990   -0.5480 H   0  0  0  0  0  0  0  0  0  0  0  0
   -6.0980    1.0230   -0.6600 H   0  0  0  0  0  0  0  0  0  0  0  0
    2.8840   -0.1330    1.6510 H   0  0  0  0  0  0  0  0  0  0  0  0
    1.8910    2.1880   -1.7860 H   0  0  0  0  0  0  0  0  0  0  0  0
    4.0730    1.6410   -2.7870 H   0  0  0  0  0  0  0  0  0  0  0  0
    5.6620    0.2090   -1.5700 H   0  0  0  0  0  0  0  0  0  0  0  0
   -1.6170    1.1520    1.2560 H   0  0  0  0  0  0  0  0  0  0  0  0
   -3.2760    2.1140    0.1690 H   0  0  0  0  0  0  0  0  0  0  0  0
   -5.0780    2.4970    1.9130 H   0  0  0  0  0  0  0  0  0  0  0  0
   -5.5640    0.7210    1.8010 H   0  0  0  0  0  0  0  0  0  0  0  0
   -4.8510   -3.0260   -1.0460 H   0  0  0  0  0  0  0  0  0  0  0  0
  1 20  2  0  0  0  0
  1  6  1  0  0  0  0
  7 20  1  0  0  0  0
  5  6  2  0  0  0  0
  7 17  2  0  0  0  0
  5 17  1  0  0  0  0
  5 16  1  0  0  0  0
 17 18  1  0  0  0  0
  4 16  1  0  0  0  0
 14 15  1  0  0  0  0
  4 10  2  0  0  0  0
  3  4  1  0  0  0  0
 18 19  1  0  0  0  0
  8 18  1  0  0  0  0
  9 14  2  0  0  0  0
  2  9  1  0  0  0  0
 13 14  1  0  0  0  0
  8 19  1  0  0  0  0
  2  3  1  0  0  0  0
  2 11  2  0  0  0  0
 12 13  2  0  0  0  0
 11 12  1  0  0  0  0
  3 21  1  0  0  0  0
  3 22  1  0  0  0  0
  6 23  1  0  0  0  0
  7 24  1  0  0  0  0
  8 25  1  0  0  0  0
  8 26  1  0  0  0  0
  9 27  1  0  0  0  0
 11 28  1  0  0  0  0
 12 29  1  0  0  0  0
 13 30  1  0  0  0  0
 16 31  1  0  0  0  0
 18 32  1  0  0  0  0
 19 33  1  0  0  0  0
 19 34  1  0  0  0  0
 20 35  1  0  0  0  0
M  END
> <OPENEYE_ISO_SMILES>
c1cc(cc(c1)Cl)CC(=O)Nc2cnccc2C3CC3

> <OPENEYE_INCHI>
InChI=1S/C16H15ClN2O/c17-13-3-1-2-11(8-13)9-16(20)19-15-10-18-7-6-14(15)12-4-5-12/h1-3,6-8,10,12H,4-5,9H2,(H,19,20)

> <OPENEYE_INCHIKEY>
TVYREULMZIPGLM-UHFFFAOYSA-N

> <FORMULA>
C16H15ClN2O

$$$$
