O0X
  -OEChem-05102419323D

 33 35  0     0  0  0  0  0  0999 V2000
   -2.7150   -2.4080   -0.5490 N   0  0  0  0  0  0  0  0  0  0  0  0
    2.5680    1.0680    0.1170 C   0  0  0  0  0  0  0  0  0  0  0  0
    1.2680    1.3770    0.8140 C   0  0  0  0  0  0  0  0  0  0  0  0
    0.2060    0.4170    0.3440 C   0  0  0  0  0  0  0  0  0  0  0  0
   -2.0520   -0.3230    0.3340 C   0  0  0  0  0  0  0  0  0  0  0  0
   -1.7710   -1.6120   -0.0710 C   0  0  0  0  0  0  0  0  0  0  0  0
   -4.3640   -0.7430   -0.2900 C   0  0  0  0  0  0  0  0  0  0  0  0
   -3.7580    1.4340    0.6150 C   0  0  0  0  0  0  0  0  0  0  0  0
    3.4540    0.1670    0.6750 C   0  0  0  0  0  0  0  0  0  0  0  0
    0.4770   -0.4340   -0.4770 O   0  0  0  0  0  0  0  0  0  0  0  0
    2.8700    1.6830   -1.0840 C   0  0  0  0  0  0  0  0  0  0  0  0
    4.0620    1.4000   -1.7250 C   0  0  0  0  0  0  0  0  0  0  0  0
    4.9520    0.5020   -1.1660 C   0  0  0  0  0  0  0  0  0  0  0  0
    4.6450   -0.1210    0.0310 C   0  0  0  0  0  0  0  0  0  0  0  0
    5.7590   -1.2530    0.7310 Cl  0  0  0  0  0  0  0  0  0  0  0  0
   -1.0460    0.5040    0.8360 N   0  0  0  0  0  0  0  0  0  0  0  0
   -3.3820    0.1390    0.2270 C   0  0  0  0  0  0  0  0  0  0  0  0
   -5.0710    1.7890    0.4740 C   0  0  0  0  0  0  0  0  0  0  0  0
   -5.9870    0.8750   -0.0410 C   0  0  0  0  0  0  0  0  0  0  0  0
   -5.6300   -0.3340   -0.4020 N   0  0  0  0  0  0  0  0  0  0  0  0
   -3.9670   -2.0370   -0.6720 C   0  0  0  0  0  0  0  0  0  0  0  0
    1.4000    1.2730    1.8910 H   0  0  0  0  0  0  0  0  0  0  0  0
    0.9640    2.3970    0.5820 H   0  0  0  0  0  0  0  0  0  0  0  0
   -0.7580   -1.9800    0.0050 H   0  0  0  0  0  0  0  0  0  0  0  0
   -3.0330    2.1280    1.0130 H   0  0  0  0  0  0  0  0  0  0  0  0
    3.2180   -0.3130    1.6130 H   0  0  0  0  0  0  0  0  0  0  0  0
    2.1750    2.3850   -1.5210 H   0  0  0  0  0  0  0  0  0  0  0  0
    4.2980    1.8800   -2.6630 H   0  0  0  0  0  0  0  0  0  0  0  0
    5.8820    0.2810   -1.6670 H   0  0  0  0  0  0  0  0  0  0  0  0
   -1.2480    1.1410    1.5390 H   0  0  0  0  0  0  0  0  0  0  0  0
   -5.3980    2.7770    0.7620 H   0  0  0  0  0  0  0  0  0  0  0  0
   -7.0210    1.1700   -0.1470 H   0  0  0  0  0  0  0  0  0  0  0  0
   -4.6960   -2.7270   -1.0700 H   0  0  0  0  0  0  0  0  0  0  0  0
  1 21  2  0  0  0  0
  1  6  1  0  0  0  0
  7 21  1  0  0  0  0
  5  6  2  0  0  0  0
  7 20  2  0  0  0  0
  7 17  1  0  0  0  0
 19 20  1  0  0  0  0
  5 17  1  0  0  0  0
  5 16  1  0  0  0  0
  8 17  2  0  0  0  0
 18 19  2  0  0  0  0
  4 16  1  0  0  0  0
  4 10  2  0  0  0  0
 14 15  1  0  0  0  0
  3  4  1  0  0  0  0
  8 18  1  0  0  0  0
  9 14  2  0  0  0  0
  2  9  1  0  0  0  0
 13 14  1  0  0  0  0
  2  3  1  0  0  0  0
  2 11  2  0  0  0  0
 12 13  2  0  0  0  0
 11 12  1  0  0  0  0
  3 22  1  0  0  0  0
  3 23  1  0  0  0  0
  6 24  1  0  0  0  0
  8 25  1  0  0  0  0
  9 26  1  0  0  0  0
 11 27  1  0  0  0  0
 12 28  1  0  0  0  0
 13 29  1  0  0  0  0
 16 30  1  0  0  0  0
 18 31  1  0  0  0  0
 19 32  1  0  0  0  0
 21 33  1  0  0  0  0
M  END
> <OPENEYE_ISO_SMILES>
c1cc(cc(c1)Cl)CC(=O)Nc2cncc3c2cccn3

> <OPENEYE_INCHI>
InChI=1S/C16H12ClN3O/c17-12-4-1-3-11(7-12)8-16(21)20-15-10-18-9-14-13(15)5-2-6-19-14/h1-7,9-10H,8H2,(H,20,21)

> <OPENEYE_INCHIKEY>
ACBAQCKSRSEYGV-UHFFFAOYSA-N

> <FORMULA>
C16H12ClN3O

$$$$
