O1X
  -OEChem-05102419323D

 28 28  0     1  0  0  0  0  0999 V2000
   -3.6240   -1.6070   -0.0280 N   0  0  0  0  0  0  0  0  0  0  0  0
   -2.0210    0.1040   -0.2130 C   0  0  0  0  0  0  0  0  0  0  0  0
   -2.3880   -1.2330   -0.2910 C   0  0  0  0  0  0  0  0  0  0  0  0
   -4.5550   -0.7390    0.3160 C   0  0  0  0  0  0  0  0  0  0  0  0
   -4.2660    0.6090    0.4150 C   0  0  0  0  0  0  0  0  0  0  0  0
   -2.9800    1.0480    0.1470 C   0  0  0  0  0  0  0  0  0  0  0  0
    0.1070   -1.4080    0.2970 O   0  0  0  0  0  0  0  0  0  0  0  0
    0.3210   -0.3080   -0.1660 C   0  0  0  0  0  0  0  0  0  0  0  0
    1.7390    0.1570   -0.3760 C   0  0  1  0  0  0  0  0  0  0  0  0
    2.6440   -0.8670    0.0430 O   0  0  0  0  0  0  0  0  0  0  0  0
    3.8930   -0.3740    0.5310 C   0  0  0  0  0  0  0  0  0  0  0  0
    4.5330    0.3550   -0.4770 F   0  0  0  0  0  0  0  0  0  0  0  0
    3.6680    0.4560    1.6350 F   0  0  0  0  0  0  0  0  0  0  0  0
    1.9630    0.4590   -1.8590 C   0  0  0  0  0  0  0  0  0  0  0  0
   -0.7080    0.4980   -0.4930 N   0  0  0  0  0  0  0  0  0  0  0  0
   -2.6270    2.5100    0.2440 C   0  0  0  0  0  0  0  0  0  0  0  0
   -1.6530   -1.9730   -0.5700 H   0  0  0  0  0  0  0  0  0  0  0  0
   -5.5560   -1.0870    0.5240 H   0  0  0  0  0  0  0  0  0  0  0  0
   -5.0360    1.3130    0.6980 H   0  0  0  0  0  0  0  0  0  0  0  0
    1.9160    1.0600    0.2090 H   0  0  0  0  0  0  0  0  0  0  0  0
    4.5230   -1.2120    0.8290 H   0  0  0  0  0  0  0  0  0  0  0  0
    1.7860   -0.4430   -2.4440 H   0  0  0  0  0  0  0  0  0  0  0  0
    1.2730    1.2400   -2.1790 H   0  0  0  0  0  0  0  0  0  0  0  0
    2.9880    0.7960   -2.0110 H   0  0  0  0  0  0  0  0  0  0  0  0
   -0.5380    1.3510   -0.9220 H   0  0  0  0  0  0  0  0  0  0  0  0
   -2.7910    2.9880   -0.7220 H   0  0  0  0  0  0  0  0  0  0  0  0
   -3.2550    2.9860    0.9960 H   0  0  0  0  0  0  0  0  0  0  0  0
   -1.5790    2.6120    0.5270 H   0  0  0  0  0  0  0  0  0  0  0  0
  1  4  2  0  0  0  0
  1  3  1  0  0  0  0
  4  5  1  0  0  0  0
  2  3  2  0  0  0  0
  5  6  2  0  0  0  0
  2  6  1  0  0  0  0
  2 15  1  0  0  0  0
  6 16  1  0  0  0  0
  8 15  1  0  0  0  0
  7  8  2  0  0  0  0
  8  9  1  0  0  0  0
 11 13  1  0  0  0  0
 11 12  1  0  0  0  0
 10 11  1  0  0  0  0
  9 10  1  0  0  0  0
  9 14  1  0  0  0  0
  3 17  1  0  0  0  0
  4 18  1  0  0  0  0
  5 19  1  0  0  0  0
  9 20  1  0  0  0  0
 11 21  1  0  0  0  0
 14 22  1  0  0  0  0
 14 23  1  0  0  0  0
 14 24  1  0  0  0  0
 15 25  1  0  0  0  0
 16 26  1  0  0  0  0
 16 27  1  0  0  0  0
 16 28  1  0  0  0  0
M  END
> <OPENEYE_ISO_SMILES>
Cc1ccncc1NC(=O)[C@H](C)OC(F)F

> <OPENEYE_INCHI>
InChI=1S/C10H12F2N2O2/c1-6-3-4-13-5-8(6)14-9(15)7(2)16-10(11)12/h3-5,7,10H,1-2H3,(H,14,15)/t7-/m0/s1

> <OPENEYE_INCHIKEY>
XVSORZZOZIKMAO-ZETCQYMHSA-N

> <FORMULA>
C10H12F2N2O2

$$$$
