O2R
  -OEChem-05102419323D

 44 45  0     0  0  0  0  0  0999 V2000
   -4.1530   -1.7280   -1.7820 N   0  0  0  0  0  0  0  0  0  0  0  0
    2.0160    0.4810    0.2290 C   0  0  0  0  0  0  0  0  0  0  0  0
    3.2010    0.4840   -0.4920 C   0  0  0  0  0  0  0  0  0  0  0  0
    3.9210   -0.6860   -0.6400 C   0  0  0  0  0  0  0  0  0  0  0  0
    3.4600   -1.8600   -0.0690 C   0  0  0  0  0  0  0  0  0  0  0  0
    2.2780   -1.8640    0.6500 C   0  0  0  0  0  0  0  0  0  0  0  0
    0.2710   -0.6990    1.5890 C   0  0  0  0  0  0  0  0  0  0  0  0
   -3.1340   -1.6680   -0.9480 C   0  0  0  0  0  0  0  0  0  0  0  0
   -5.4750   -0.4050   -0.3590 C   0  0  0  0  0  0  0  0  0  0  0  0
   -4.5840    0.4630    1.8280 C   0  0  0  0  0  0  0  0  0  0  0  0
   -0.6940   -0.9710   -0.5470 O   0  0  0  0  0  0  0  0  0  0  0  0
   -0.8910   -0.8660    0.6450 C   0  0  0  0  0  0  0  0  0  0  0  0
   -2.1500   -0.8990    1.1250 N   0  0  0  0  0  0  0  0  0  0  0  0
   -3.2340   -0.9610    0.2430 C   0  0  0  0  0  0  0  0  0  0  0  0
   -4.4300   -0.3150    0.5460 C   0  0  0  0  0  0  0  0  0  0  0  0
   -5.2980   -1.1280   -1.5240 C   0  0  0  0  0  0  0  0  0  0  0  0
    1.5580   -0.6950    0.8050 C   0  0  0  0  0  0  0  0  0  0  0  0
    4.3650   -3.3290   -0.2570 Cl  0  0  0  0  0  0  0  0  0  0  0  0
    1.3070    1.6320    0.3770 O   0  0  0  0  0  0  0  0  0  0  0  0
    1.8420    2.8060   -0.2380 C   0  0  0  0  0  0  0  0  0  0  0  0
    0.9130    3.9910    0.0340 C   0  0  0  0  0  0  0  0  0  0  0  0
    1.4850    5.2490   -0.6240 C   0  0  0  0  0  0  0  0  0  0  0  0
    0.5570    6.4340   -0.3520 C   0  0  0  0  0  0  0  0  0  0  0  0
    3.5610    1.3990   -0.9370 H   0  0  0  0  0  0  0  0  0  0  0  0
    4.8430   -0.6850   -1.2010 H   0  0  0  0  0  0  0  0  0  0  0  0
    1.9200   -2.7810    1.0940 H   0  0  0  0  0  0  0  0  0  0  0  0
    0.1700    0.2430    2.1270 H   0  0  0  0  0  0  0  0  0  0  0  0
    0.2830   -1.5250    2.3010 H   0  0  0  0  0  0  0  0  0  0  0  0
   -2.2110   -2.1730   -1.1940 H   0  0  0  0  0  0  0  0  0  0  0  0
   -6.4170    0.0840   -0.1570 H   0  0  0  0  0  0  0  0  0  0  0  0
   -4.9590   -0.1960    2.6110 H   0  0  0  0  0  0  0  0  0  0  0  0
   -3.6160    0.8680    2.1250 H   0  0  0  0  0  0  0  0  0  0  0  0
   -5.2880    1.2810    1.6740 H   0  0  0  0  0  0  0  0  0  0  0  0
   -2.3040   -0.8800    2.0830 H   0  0  0  0  0  0  0  0  0  0  0  0
   -6.1100   -1.2020   -2.2330 H   0  0  0  0  0  0  0  0  0  0  0  0
    2.8280    3.0160    0.1750 H   0  0  0  0  0  0  0  0  0  0  0  0
    1.9240    2.6480   -1.3130 H   0  0  0  0  0  0  0  0  0  0  0  0
   -0.0740    3.7820   -0.3790 H   0  0  0  0  0  0  0  0  0  0  0  0
    0.8310    4.1490    1.1090 H   0  0  0  0  0  0  0  0  0  0  0  0
    2.4720    5.4580   -0.2110 H   0  0  0  0  0  0  0  0  0  0  0  0
    1.5670    5.0910   -1.6990 H   0  0  0  0  0  0  0  0  0  0  0  0
   -0.4300    6.2250   -0.7650 H   0  0  0  0  0  0  0  0  0  0  0  0
    0.4740    6.5920    0.7230 H   0  0  0  0  0  0  0  0  0  0  0  0
    0.9640    7.3300   -0.8210 H   0  0  0  0  0  0  0  0  0  0  0  0
  1 16  2  0  0  0  0
  1  8  1  0  0  0  0
  9 16  1  0  0  0  0
  8 14  2  0  0  0  0
  9 15  2  0  0  0  0
 14 15  1  0  0  0  0
 13 14  1  0  0  0  0
 10 15  1  0  0  0  0
 12 13  1  0  0  0  0
 11 12  2  0  0  0  0
  7 12  1  0  0  0  0
  5 18  1  0  0  0  0
  5  6  2  0  0  0  0
  6 17  1  0  0  0  0
  7 17  1  0  0  0  0
  4  5  1  0  0  0  0
  2 17  2  0  0  0  0
  3  4  2  0  0  0  0
  2  3  1  0  0  0  0
  2 19  1  0  0  0  0
 19 20  1  0  0  0  0
 22 23  1  0  0  0  0
 21 22  1  0  0  0  0
 20 21  1  0  0  0  0
  3 24  1  0  0  0  0
  4 25  1  0  0  0  0
  6 26  1  0  0  0  0
  7 27  1  0  0  0  0
  7 28  1  0  0  0  0
  8 29  1  0  0  0  0
  9 30  1  0  0  0  0
 10 31  1  0  0  0  0
 10 32  1  0  0  0  0
 10 33  1  0  0  0  0
 13 34  1  0  0  0  0
 16 35  1  0  0  0  0
 20 36  1  0  0  0  0
 20 37  1  0  0  0  0
 21 38  1  0  0  0  0
 21 39  1  0  0  0  0
 22 40  1  0  0  0  0
 22 41  1  0  0  0  0
 23 42  1  0  0  0  0
 23 43  1  0  0  0  0
 23 44  1  0  0  0  0
M  END
> <OPENEYE_ISO_SMILES>
CCCCOc1ccc(cc1CC(=O)Nc2cnccc2C)Cl

> <OPENEYE_INCHI>
InChI=1S/C18H21ClN2O2/c1-3-4-9-23-17-6-5-15(19)10-14(17)11-18(22)21-16-12-20-8-7-13(16)2/h5-8,10,12H,3-4,9,11H2,1-2H3,(H,21,22)

> <OPENEYE_INCHIKEY>
BNLQGZVZNCOJKF-UHFFFAOYSA-N

> <FORMULA>
C18H21ClN2O2

$$$$
