O3I
  -OEChem-05102419323D

 44 46  0     0  0  0  0  0  0999 V2000
   -4.9320   -2.2050   -1.7400 N   0  0  0  0  0  0  0  0  0  0  0  0
    3.0450   -0.2580    0.5480 C   0  0  0  0  0  0  0  0  0  0  0  0
    3.7210   -0.5750   -0.6300 C   0  0  0  0  0  0  0  0  0  0  0  0
    4.7940   -1.4490   -0.5950 C   0  0  0  0  0  0  0  0  0  0  0  0
    1.8940    0.6780    0.5180 C   0  0  0  0  0  0  0  0  0  0  0  0
    2.0110    1.9090   -0.1230 C   0  0  0  0  0  0  0  0  0  0  0  0
   -0.2540    2.4240    0.4630 C   0  0  0  0  0  0  0  0  0  0  0  0
   -2.5600    0.1150    0.7630 C   0  0  0  0  0  0  0  0  0  0  0  0
   -4.1280   -1.6620   -0.8480 C   0  0  0  0  0  0  0  0  0  0  0  0
   -6.8220   -1.2900   -0.6850 C   0  0  0  0  0  0  0  0  0  0  0  0
    0.6910    0.3260    1.1260 C   0  0  0  0  0  0  0  0  0  0  0  0
   -2.1730   -0.0660   -0.3710 O   0  0  0  0  0  0  0  0  0  0  0  0
   -3.7820   -0.3180    1.1350 N   0  0  0  0  0  0  0  0  0  0  0  0
   -4.6380   -0.8930    0.1900 C   0  0  0  0  0  0  0  0  0  0  0  0
   -6.0150   -0.7010    0.2750 C   0  0  0  0  0  0  0  0  0  0  0  0
   -6.6120    0.1270    1.3830 C   0  0  0  0  0  0  0  0  0  0  0  0
   -6.2390   -2.0430   -1.6880 C   0  0  0  0  0  0  0  0  0  0  0  0
   -1.6770    0.8230    1.7580 C   0  0  0  0  0  0  0  0  0  0  0  0
   -0.3770    1.2000    1.0960 C   0  0  0  0  0  0  0  0  0  0  0  0
    0.9370    2.7770   -0.1470 C   0  0  0  0  0  0  0  0  0  0  0  0
    1.0830    4.3150   -0.9390 Cl  0  0  0  0  0  0  0  0  0  0  0  0
    3.4510   -0.8300    1.7530 C   0  0  0  0  0  0  0  0  0  0  0  0
    4.5180   -1.7040    1.7760 C   0  0  0  0  0  0  0  0  0  0  0  0
    3.3290   -0.0300   -1.8030 F   0  0  0  0  0  0  0  0  0  0  0  0
    5.4510   -1.7580   -1.7340 F   0  0  0  0  0  0  0  0  0  0  0  0
    5.1940   -2.0070    0.6080 C   0  0  0  0  0  0  0  0  0  0  0  0
    6.3580   -2.9640    0.6410 C   0  0  0  0  0  0  0  0  0  0  0  0
    2.9410    2.1850   -0.5990 H   0  0  0  0  0  0  0  0  0  0  0  0
   -1.0910    3.1070    0.4460 H   0  0  0  0  0  0  0  0  0  0  0  0
   -3.0620   -1.8180   -0.9230 H   0  0  0  0  0  0  0  0  0  0  0  0
   -7.8940   -1.1620   -0.6510 H   0  0  0  0  0  0  0  0  0  0  0  0
    0.5930   -0.6300    1.6200 H   0  0  0  0  0  0  0  0  0  0  0  0
   -4.0670   -0.2310    2.0580 H   0  0  0  0  0  0  0  0  0  0  0  0
   -6.8380   -0.5140    2.2340 H   0  0  0  0  0  0  0  0  0  0  0  0
   -5.9020    0.8960    1.6850 H   0  0  0  0  0  0  0  0  0  0  0  0
   -7.5300    0.5990    1.0300 H   0  0  0  0  0  0  0  0  0  0  0  0
   -6.8630   -2.5040   -2.4380 H   0  0  0  0  0  0  0  0  0  0  0  0
   -2.1790    1.7230    2.1130 H   0  0  0  0  0  0  0  0  0  0  0  0
   -1.4770    0.1620    2.6010 H   0  0  0  0  0  0  0  0  0  0  0  0
    2.9250   -0.5950    2.6670 H   0  0  0  0  0  0  0  0  0  0  0  0
    4.8320   -2.1460    2.7100 H   0  0  0  0  0  0  0  0  0  0  0  0
    5.9980   -3.9800    0.4820 H   0  0  0  0  0  0  0  0  0  0  0  0
    7.0660   -2.7020   -0.1460 H   0  0  0  0  0  0  0  0  0  0  0  0
    6.8520   -2.9010    1.6100 H   0  0  0  0  0  0  0  0  0  0  0  0
  1 17  2  0  0  0  0
  1  9  1  0  0  0  0
 10 17  1  0  0  0  0
  9 14  2  0  0  0  0
 10 15  2  0  0  0  0
 14 15  1  0  0  0  0
 13 14  1  0  0  0  0
 15 16  1  0  0  0  0
  8 12  2  0  0  0  0
  8 13  1  0  0  0  0
  8 18  1  0  0  0  0
 18 19  1  0  0  0  0
  7 19  2  0  0  0  0
  7 20  1  0  0  0  0
 20 21  1  0  0  0  0
 11 19  1  0  0  0  0
  6 20  2  0  0  0  0
  5  6  1  0  0  0  0
  5 11  2  0  0  0  0
 22 23  2  0  0  0  0
  2 22  1  0  0  0  0
  2  5  1  0  0  0  0
 23 26  1  0  0  0  0
  2  3  2  0  0  0  0
  4 26  2  0  0  0  0
 26 27  1  0  0  0  0
  3  4  1  0  0  0  0
  3 24  1  0  0  0  0
  4 25  1  0  0  0  0
  6 28  1  0  0  0  0
  7 29  1  0  0  0  0
  9 30  1  0  0  0  0
 10 31  1  0  0  0  0
 11 32  1  0  0  0  0
 13 33  1  0  0  0  0
 16 34  1  0  0  0  0
 16 35  1  0  0  0  0
 16 36  1  0  0  0  0
 17 37  1  0  0  0  0
 18 38  1  0  0  0  0
 18 39  1  0  0  0  0
 22 40  1  0  0  0  0
 23 41  1  0  0  0  0
 27 42  1  0  0  0  0
 27 43  1  0  0  0  0
 27 44  1  0  0  0  0
M  END
> <OPENEYE_ISO_SMILES>
Cc1ccc(c(c1F)F)c2cc(cc(c2)Cl)CC(=O)Nc3cnccc3C

> <OPENEYE_INCHI>
InChI=1S/C21H17ClF2N2O/c1-12-5-6-25-11-18(12)26-19(27)9-14-7-15(10-16(22)8-14)17-4-3-13(2)20(23)21(17)24/h3-8,10-11H,9H2,1-2H3,(H,26,27)

> <OPENEYE_INCHIKEY>
KWOZOQHUQWBGBH-UHFFFAOYSA-N

> <FORMULA>
C21H17ClF2N2O

$$$$
