O87
  -OEChem-05102419323D

 47 50  0     0  0  0  0  0  0999 V2000
    1.1470   -1.5190   -0.4420 N   0  0  0  0  0  0  0  0  0  0  0  0
   -2.4200    1.2130    1.3720 C   0  0  0  0  0  0  0  0  0  0  0  0
   -2.5190    0.0340    0.6430 C   0  0  0  0  0  0  0  0  0  0  0  0
   -3.7460   -0.3560    0.1240 C   0  0  0  0  0  0  0  0  0  0  0  0
   -0.2030   -0.1580    1.0650 C   0  0  0  0  0  0  0  0  0  0  0  0
    0.9730   -1.1360    0.9680 C   0  0  0  0  0  0  0  0  0  0  0  0
   -1.1650   -0.9860   -1.0020 C   0  0  0  0  0  0  0  0  0  0  0  0
    4.2040   -1.5770    0.6050 C   0  0  0  0  0  0  0  0  0  0  0  0
    5.0070    1.0810    0.1440 C   0  0  0  0  0  0  0  0  0  0  0  0
    4.6910    3.1650   -0.9980 C   0  0  0  0  0  0  0  0  0  0  0  0
    3.9080    0.5490   -0.5530 C   0  0  0  0  0  0  0  0  0  0  0  0
    5.9600   -1.6190    2.1160 O   0  0  0  0  0  0  0  0  0  0  0  0
    5.3330   -0.9650    1.3020 C   0  0  0  0  0  0  0  0  0  0  0  0
    5.6910    0.3070    1.0570 N   0  0  0  0  0  0  0  0  0  0  0  0
    3.2140    1.3440   -1.4690 C   0  0  0  0  0  0  0  0  0  0  0  0
    3.6070    2.6350   -1.6840 C   0  0  0  0  0  0  0  0  0  0  0  0
    5.3900    2.3990   -0.0900 C   0  0  0  0  0  0  0  0  0  0  0  0
    3.5010   -0.8430   -0.3080 C   0  0  0  0  0  0  0  0  0  0  0  0
    2.3540   -1.4380   -1.0360 C   0  0  0  0  0  0  0  0  0  0  0  0
    2.5020   -1.8510   -2.1690 O   0  0  0  0  0  0  0  0  0  0  0  0
   -0.0290   -1.9990   -1.1830 C   0  0  0  0  0  0  0  0  0  0  0  0
   -1.3860   -0.7550    0.4320 N   0  0  0  0  0  0  0  0  0  0  0  0
   -3.5410    1.9920    1.5790 C   0  0  0  0  0  0  0  0  0  0  0  0
   -4.7610    1.6020    1.0550 C   0  0  0  0  0  0  0  0  0  0  0  0
   -4.8640    0.4270    0.3340 C   0  0  0  0  0  0  0  0  0  0  0  0
   -6.1960    0.0040   -0.2290 C   0  0  0  0  0  0  0  0  0  0  0  0
   -5.9950   -0.7260   -1.4050 F   0  0  0  0  0  0  0  0  0  0  0  0
   -6.8660   -0.7920    0.7060 F   0  0  0  0  0  0  0  0  0  0  0  0
   -6.9650    1.1390   -0.5120 F   0  0  0  0  0  0  0  0  0  0  0  0
   -1.4680    1.5170    1.7810 H   0  0  0  0  0  0  0  0  0  0  0  0
   -3.8260   -1.2720   -0.4440 H   0  0  0  0  0  0  0  0  0  0  0  0
   -0.4170    0.0510    2.1130 H   0  0  0  0  0  0  0  0  0  0  0  0
    0.0530    0.7700    0.5540 H   0  0  0  0  0  0  0  0  0  0  0  0
    0.7610   -2.0230    1.5650 H   0  0  0  0  0  0  0  0  0  0  0  0
    1.8810   -0.6550    1.3320 H   0  0  0  0  0  0  0  0  0  0  0  0
   -0.8950   -0.0470   -1.4840 H   0  0  0  0  0  0  0  0  0  0  0  0
   -2.0770   -1.3780   -1.4520 H   0  0  0  0  0  0  0  0  0  0  0  0
    3.9300   -2.6020    0.8070 H   0  0  0  0  0  0  0  0  0  0  0  0
    4.9900    4.1870   -1.1780 H   0  0  0  0  0  0  0  0  0  0  0  0
    6.4450    0.6890    1.5330 H   0  0  0  0  0  0  0  0  0  0  0  0
    2.3690    0.9390   -2.0070 H   0  0  0  0  0  0  0  0  0  0  0  0
    3.0700    3.2480   -2.3920 H   0  0  0  0  0  0  0  0  0  0  0  0
    6.2330    2.8200    0.4380 H   0  0  0  0  0  0  0  0  0  0  0  0
    0.2170   -2.0880   -2.2410 H   0  0  0  0  0  0  0  0  0  0  0  0
   -0.3370   -2.9690   -0.7930 H   0  0  0  0  0  0  0  0  0  0  0  0
   -3.4660    2.9050    2.1490 H   0  0  0  0  0  0  0  0  0  0  0  0
   -5.6370    2.2130    1.2180 H   0  0  0  0  0  0  0  0  0  0  0  0
 12 13  2  0  0  0  0
 13 14  1  0  0  0  0
  8 13  1  0  0  0  0
  9 14  1  0  0  0  0
  8 18  2  0  0  0  0
  9 17  2  0  0  0  0
  9 11  1  0  0  0  0
 10 17  1  0  0  0  0
 11 18  1  0  0  0  0
 18 19  1  0  0  0  0
 19 20  2  0  0  0  0
 11 15  2  0  0  0  0
  1 19  1  0  0  0  0
 10 16  2  0  0  0  0
 15 16  1  0  0  0  0
  1 21  1  0  0  0  0
  1  6  1  0  0  0  0
  7 21  1  0  0  0  0
  7 22  1  0  0  0  0
 26 29  1  0  0  0  0
  5  6  1  0  0  0  0
  5 22  1  0  0  0  0
  3 22  1  0  0  0  0
  3  4  2  0  0  0  0
  4 25  1  0  0  0  0
 26 27  1  0  0  0  0
 25 26  1  0  0  0  0
 26 28  1  0  0  0  0
  2  3  1  0  0  0  0
 24 25  2  0  0  0  0
  2 23  2  0  0  0  0
 23 24  1  0  0  0  0
  2 30  1  0  0  0  0
  4 31  1  0  0  0  0
  5 32  1  0  0  0  0
  5 33  1  0  0  0  0
  6 34  1  0  0  0  0
  6 35  1  0  0  0  0
  7 36  1  0  0  0  0
  7 37  1  0  0  0  0
  8 38  1  0  0  0  0
 10 39  1  0  0  0  0
 14 40  1  0  0  0  0
 15 41  1  0  0  0  0
 16 42  1  0  0  0  0
 17 43  1  0  0  0  0
 21 44  1  0  0  0  0
 21 45  1  0  0  0  0
 23 46  1  0  0  0  0
 24 47  1  0  0  0  0
M  END
> <OPENEYE_ISO_SMILES>
c1ccc2c(c1)c(cc(=O)[nH]2)C(=O)N3CCN(CC3)c4cccc(c4)C(F)(F)F

> <OPENEYE_INCHI>
InChI=1S/C21H18F3N3O2/c22-21(23,24)14-4-3-5-15(12-14)26-8-10-27(11-9-26)20(29)17-13-19(28)25-18-7-2-1-6-16(17)18/h1-7,12-13H,8-11H2,(H,25,28)

> <OPENEYE_INCHIKEY>
NKHDYQSOEVSMNT-UHFFFAOYSA-N

> <FORMULA>
C21H18F3N3O2

$$$$
