O9O
  -OEChem-05102419323D

 48 51  0     0  0  0  0  0  0999 V2000
    5.9530   -1.1110   -1.2480 N   0  0  0  0  0  0  0  0  0  0  0  0
   -3.0660    2.8610   -1.8390 C   0  0  0  0  0  0  0  0  0  0  0  0
   -2.9250    1.6440   -1.1860 C   0  0  0  0  0  0  0  0  0  0  0  0
   -1.9770   -0.4770   -1.0370 C   0  0  0  0  0  0  0  0  0  0  0  0
   -3.0020   -1.4040   -0.9070 C   0  0  0  0  0  0  0  0  0  0  0  0
   -2.7990   -2.5640   -0.1820 C   0  0  0  0  0  0  0  0  0  0  0  0
   -0.5440   -1.8820    0.2810 C   0  0  0  0  0  0  0  0  0  0  0  0
    4.2100   -1.0200    0.3250 C   0  0  0  0  0  0  0  0  0  0  0  0
    6.2190    0.1690   -1.1410 C   0  0  0  0  0  0  0  0  0  0  0  0
    5.7150    2.3410   -0.1090 C   0  0  0  0  0  0  0  0  0  0  0  0
    3.6750    1.1360    1.3800 C   0  0  0  0  0  0  0  0  0  0  0  0
    4.4360    0.3580    0.4960 C   0  0  0  0  0  0  0  0  0  0  0  0
   -0.7480   -0.7150   -0.4430 C   0  0  0  0  0  0  0  0  0  0  0  0
    1.7630   -0.9540   -0.6670 O   0  0  0  0  0  0  0  0  0  0  0  0
    1.8130   -1.5720    0.3750 C   0  0  0  0  0  0  0  0  0  0  0  0
    3.1260   -1.7230    1.1000 C   0  0  0  0  0  0  0  0  0  0  0  0
    3.9410    2.4670    1.5010 C   0  0  0  0  0  0  0  0  0  0  0  0
    4.9570    3.0660    0.7590 C   0  0  0  0  0  0  0  0  0  0  0  0
    5.4710    0.9680   -0.2610 C   0  0  0  0  0  0  0  0  0  0  0  0
    4.9920   -1.7060   -0.5540 C   0  0  0  0  0  0  0  0  0  0  0  0
    0.6940   -2.1240    0.8860 N   0  0  0  0  0  0  0  0  0  0  0  0
   -1.5750   -2.8030    0.4170 C   0  0  0  0  0  0  0  0  0  0  0  0
   -4.0820   -3.7220   -0.0220 Cl  0  0  0  0  0  0  0  0  0  0  0  0
   -2.1780    0.6620   -1.7500 O   0  0  0  0  0  0  0  0  0  0  0  0
   -3.8260    3.8590   -1.2530 C   0  0  0  0  0  0  0  0  0  0  0  0
   -4.4230    3.6050   -0.0290 C   0  0  0  0  0  0  0  0  0  0  0  0
   -3.5120    1.4310   -0.0200 N   0  0  0  0  0  0  0  0  0  0  0  0
   -4.2410    2.3660    0.5700 C   0  0  0  0  0  0  0  0  0  0  0  0
   -4.8210    2.1080    1.7690 O   0  0  0  0  0  0  0  0  0  0  0  0
   -4.5970    0.8140    2.3330 C   0  0  0  0  0  0  0  0  0  0  0  0
   -2.5840    3.0290   -2.7910 H   0  0  0  0  0  0  0  0  0  0  0  0
   -3.9580   -1.2200   -1.3730 H   0  0  0  0  0  0  0  0  0  0  0  0
    7.0120    0.6080   -1.7270 H   0  0  0  0  0  0  0  0  0  0  0  0
    6.4990    2.8200   -0.6780 H   0  0  0  0  0  0  0  0  0  0  0  0
    2.8850    0.6840    1.9610 H   0  0  0  0  0  0  0  0  0  0  0  0
    0.0520    0.0020   -0.5490 H   0  0  0  0  0  0  0  0  0  0  0  0
    3.3710   -2.7820    1.1900 H   0  0  0  0  0  0  0  0  0  0  0  0
    3.0450   -1.2830    2.0940 H   0  0  0  0  0  0  0  0  0  0  0  0
    3.3560    3.0670    2.1820 H   0  0  0  0  0  0  0  0  0  0  0  0
    5.1470    4.1230    0.8750 H   0  0  0  0  0  0  0  0  0  0  0  0
    4.8240   -2.7640   -0.6900 H   0  0  0  0  0  0  0  0  0  0  0  0
    0.7470   -2.6880    1.6740 H   0  0  0  0  0  0  0  0  0  0  0  0
   -1.4180   -3.7110    0.9800 H   0  0  0  0  0  0  0  0  0  0  0  0
   -3.9510    4.8150   -1.7400 H   0  0  0  0  0  0  0  0  0  0  0  0
   -5.0220    4.3620    0.4550 H   0  0  0  0  0  0  0  0  0  0  0  0
   -5.1150    0.7400    3.2890 H   0  0  0  0  0  0  0  0  0  0  0  0
   -4.9760    0.0510    1.6540 H   0  0  0  0  0  0  0  0  0  0  0  0
   -3.5280    0.6650    2.4860 H   0  0  0  0  0  0  0  0  0  0  0  0
  1  9  2  0  0  0  0
  1 20  1  0  0  0  0
  9 19  1  0  0  0  0
  8 20  2  0  0  0  0
 10 19  2  0  0  0  0
 12 19  1  0  0  0  0
 10 18  1  0  0  0  0
  8 12  1  0  0  0  0
  8 16  1  0  0  0  0
 11 12  2  0  0  0  0
 15 16  1  0  0  0  0
 17 18  2  0  0  0  0
 14 15  2  0  0  0  0
 15 21  1  0  0  0  0
 11 17  1  0  0  0  0
  2 25  2  0  0  0  0
 25 26  1  0  0  0  0
  7 21  1  0  0  0  0
  2  3  1  0  0  0  0
 26 28  2  0  0  0  0
  7 22  2  0  0  0  0
  7 13  1  0  0  0  0
  6 22  1  0  0  0  0
  4 13  2  0  0  0  0
  6 23  1  0  0  0  0
  5  6  2  0  0  0  0
  3 24  1  0  0  0  0
  3 27  2  0  0  0  0
  4  5  1  0  0  0  0
  4 24  1  0  0  0  0
 27 28  1  0  0  0  0
 28 29  1  0  0  0  0
 29 30  1  0  0  0  0
  2 31  1  0  0  0  0
  5 32  1  0  0  0  0
  9 33  1  0  0  0  0
 10 34  1  0  0  0  0
 11 35  1  0  0  0  0
 13 36  1  0  0  0  0
 16 37  1  0  0  0  0
 16 38  1  0  0  0  0
 17 39  1  0  0  0  0
 18 40  1  0  0  0  0
 20 41  1  0  0  0  0
 21 42  1  0  0  0  0
 22 43  1  0  0  0  0
 25 44  1  0  0  0  0
 26 45  1  0  0  0  0
 30 46  1  0  0  0  0
 30 47  1  0  0  0  0
 30 48  1  0  0  0  0
M  END
> <OPENEYE_ISO_SMILES>
COc1cccc(n1)Oc2cc(cc(c2)Cl)NC(=O)Cc3cncc4c3cccc4

> <OPENEYE_INCHI>
InChI=1S/C23H18ClN3O3/c1-29-22-7-4-8-23(27-22)30-19-11-17(24)10-18(12-19)26-21(28)9-16-14-25-13-15-5-2-3-6-20(15)16/h2-8,10-14H,9H2,1H3,(H,26,28)

> <OPENEYE_INCHIKEY>
ZJXCDXGMXIYGBJ-UHFFFAOYSA-N

> <FORMULA>
C23H18ClN3O3

$$$$
