O9X
  -OEChem-05102419323D

 28 28  0     1  0  0  0  0  0999 V2000
   -3.5210   -1.7390    0.0800 N   0  0  0  0  0  0  0  0  0  0  0  0
   -2.0090    0.0330   -0.2480 C   0  0  0  0  0  0  0  0  0  0  0  0
   -2.2840   -1.3210   -0.1010 C   0  0  0  0  0  0  0  0  0  0  0  0
   -4.5380   -0.9020    0.1300 C   0  0  0  0  0  0  0  0  0  0  0  0
   -4.3440    0.4610   -0.0070 C   0  0  0  0  0  0  0  0  0  0  0  0
   -3.0610    0.9450   -0.2000 C   0  0  0  0  0  0  0  0  0  0  0  0
    0.1140   -1.1750    0.8050 O   0  0  0  0  0  0  0  0  0  0  0  0
    0.3260   -0.1690    0.1620 C   0  0  0  0  0  0  0  0  0  0  0  0
    1.7300    0.3640    0.0360 C   0  0  2  0  0  0  0  0  0  0  0  0
    2.6410   -0.5440    0.6570 O   0  0  0  0  0  0  0  0  0  0  0  0
    3.9440   -0.5530    0.0690 C   0  0  0  0  0  0  0  0  0  0  0  0
    3.8460   -0.9210   -1.2770 F   0  0  0  0  0  0  0  0  0  0  0  0
    4.5060    0.7250    0.1630 F   0  0  0  0  0  0  0  0  0  0  0  0
    1.8210    1.7280    0.7240 C   0  0  0  0  0  0  0  0  0  0  0  0
   -0.6950    0.4730   -0.4400 N   0  0  0  0  0  0  0  0  0  0  0  0
   -2.8080    2.4230   -0.3540 C   0  0  0  0  0  0  0  0  0  0  0  0
   -1.4770   -2.0370   -0.1370 H   0  0  0  0  0  0  0  0  0  0  0  0
   -5.5360   -1.2850    0.2800 H   0  0  0  0  0  0  0  0  0  0  0  0
   -5.1830    1.1390    0.0350 H   0  0  0  0  0  0  0  0  0  0  0  0
    1.9850    0.4710   -1.0180 H   0  0  0  0  0  0  0  0  0  0  0  0
    4.5760   -1.2680    0.5970 H   0  0  0  0  0  0  0  0  0  0  0  0
    1.5660    1.6210    1.7790 H   0  0  0  0  0  0  0  0  0  0  0  0
    2.8370    2.1130    0.6330 H   0  0  0  0  0  0  0  0  0  0  0  0
    1.1260    2.4210    0.2510 H   0  0  0  0  0  0  0  0  0  0  0  0
   -0.5190    1.2410   -1.0060 H   0  0  0  0  0  0  0  0  0  0  0  0
   -2.8680    2.6930   -1.4080 H   0  0  0  0  0  0  0  0  0  0  0  0
   -3.5580    2.9800    0.2070 H   0  0  0  0  0  0  0  0  0  0  0  0
   -1.8160    2.6640    0.0270 H   0  0  0  0  0  0  0  0  0  0  0  0
  1  4  2  0  0  0  0
  1  3  1  0  0  0  0
  4  5  1  0  0  0  0
  2  3  2  0  0  0  0
  5  6  2  0  0  0  0
  2  6  1  0  0  0  0
  2 15  1  0  0  0  0
  6 16  1  0  0  0  0
  7  8  2  0  0  0  0
  8 15  1  0  0  0  0
  8  9  1  0  0  0  0
  9 14  1  0  0  0  0
  9 10  1  0  0  0  0
 10 11  1  0  0  0  0
 11 13  1  0  0  0  0
 11 12  1  0  0  0  0
  3 17  1  0  0  0  0
  4 18  1  0  0  0  0
  5 19  1  0  0  0  0
  9 20  1  0  0  0  0
 11 21  1  0  0  0  0
 14 22  1  0  0  0  0
 14 23  1  0  0  0  0
 14 24  1  0  0  0  0
 15 25  1  0  0  0  0
 16 26  1  0  0  0  0
 16 27  1  0  0  0  0
 16 28  1  0  0  0  0
M  END
> <OPENEYE_ISO_SMILES>
Cc1ccncc1NC(=O)[C@@H](C)OC(F)F

> <OPENEYE_INCHI>
InChI=1S/C10H12F2N2O2/c1-6-3-4-13-5-8(6)14-9(15)7(2)16-10(11)12/h3-5,7,10H,1-2H3,(H,14,15)/t7-/m1/s1

> <OPENEYE_INCHIKEY>
XVSORZZOZIKMAO-SSDOTTSWSA-N

> <FORMULA>
C10H12F2N2O2

$$$$
