OAO
  -OEChem-05102419323D

 43 45  0     0  0  0  0  0  0999 V2000
    3.9410    0.2580    1.0780 N   0  0  0  0  0  0  0  0  0  0  0  0
   -5.2230    1.7380   -0.9560 N   0  0  0  0  0  0  0  0  0  0  0  0
   -1.7280   -0.7330    0.4660 C   0  0  0  0  0  0  0  0  0  0  0  0
   -1.8520   -1.9800   -0.1290 C   0  0  0  0  0  0  0  0  0  0  0  0
   -0.7840   -2.8580   -0.1200 C   0  0  0  0  0  0  0  0  0  0  0  0
    0.4070   -2.4930    0.4820 C   0  0  0  0  0  0  0  0  0  0  0  0
    0.5320   -1.2500    1.0750 C   0  0  0  0  0  0  0  0  0  0  0  0
    2.7200   -0.1820    0.7160 C   0  0  0  0  0  0  0  0  0  0  0  0
    6.4580    1.7590   -1.8190 C   0  0  0  0  0  0  0  0  0  0  0  0
    5.8120    1.6790    0.4780 C   0  0  0  0  0  0  0  0  0  0  0  0
   -0.5310   -0.3670    1.0630 C   0  0  0  0  0  0  0  0  0  0  0  0
    2.3370   -0.0370   -0.4250 O   0  0  0  0  0  0  0  0  0  0  0  0
    4.8110    0.7800    0.1140 C   0  0  0  0  0  0  0  0  0  0  0  0
    5.9800    2.1080    1.9130 C   0  0  0  0  0  0  0  0  0  0  0  0
    6.6410    2.1750   -0.5140 C   0  0  0  0  0  0  0  0  0  0  0  0
    5.5040    0.9040   -2.1300 N   0  0  0  0  0  0  0  0  0  0  0  0
    4.6890    0.4100   -1.2180 C   0  0  0  0  0  0  0  0  0  0  0  0
    1.8310   -0.8560    1.7300 C   0  0  0  0  0  0  0  0  0  0  0  0
   -0.9380   -4.4190   -0.8640 Cl  0  0  0  0  0  0  0  0  0  0  0  0
   -2.7760    0.1320    0.4580 O   0  0  0  0  0  0  0  0  0  0  0  0
   -3.9770   -0.3080   -0.1800 C   0  0  0  0  0  0  0  0  0  0  0  0
   -5.0200    0.7750   -0.0900 C   0  0  0  0  0  0  0  0  0  0  0  0
   -5.9160    0.9380    0.8890 O   0  0  0  0  0  0  0  0  0  0  0  0
   -6.6080    1.9060    0.6560 N   0  0  0  0  0  0  0  0  0  0  0  0
   -6.2470    2.4580   -0.4640 C   0  0  0  0  0  0  0  0  0  0  0  0
   -6.8620    3.6800   -1.0950 C   0  0  0  0  0  0  0  0  0  0  0  0
    4.2160    0.2170    2.0080 H   0  0  0  0  0  0  0  0  0  0  0  0
   -2.7820   -2.2640   -0.5990 H   0  0  0  0  0  0  0  0  0  0  0  0
    1.2390   -3.1810    0.4920 H   0  0  0  0  0  0  0  0  0  0  0  0
    7.1020    2.1440   -2.5960 H   0  0  0  0  0  0  0  0  0  0  0  0
   -0.4320    0.6030    1.5270 H   0  0  0  0  0  0  0  0  0  0  0  0
    6.6660    1.4280    2.4170 H   0  0  0  0  0  0  0  0  0  0  0  0
    6.3830    3.1200    1.9440 H   0  0  0  0  0  0  0  0  0  0  0  0
    5.0130    2.0860    2.4140 H   0  0  0  0  0  0  0  0  0  0  0  0
    7.4230    2.8800   -0.2700 H   0  0  0  0  0  0  0  0  0  0  0  0
    3.9200   -0.2890   -1.5110 H   0  0  0  0  0  0  0  0  0  0  0  0
    1.6300   -0.1680    2.5510 H   0  0  0  0  0  0  0  0  0  0  0  0
    2.3290   -1.7460    2.1150 H   0  0  0  0  0  0  0  0  0  0  0  0
   -3.7710   -0.5290   -1.2280 H   0  0  0  0  0  0  0  0  0  0  0  0
   -4.3420   -1.2080    0.3150 H   0  0  0  0  0  0  0  0  0  0  0  0
   -7.6750    3.3780   -1.7560 H   0  0  0  0  0  0  0  0  0  0  0  0
   -7.2520    4.3340   -0.3150 H   0  0  0  0  0  0  0  0  0  0  0  0
   -6.1050    4.2130   -1.6700 H   0  0  0  0  0  0  0  0  0  0  0  0
  9 16  2  0  0  0  0
 16 17  1  0  0  0  0
  9 15  1  0  0  0  0
 13 17  2  0  0  0  0
 10 15  2  0  0  0  0
 10 13  1  0  0  0  0
  1 13  1  0  0  0  0
 10 14  1  0  0  0  0
  1  8  1  0  0  0  0
  8 12  2  0  0  0  0
  8 18  1  0  0  0  0
  7 18  1  0  0  0  0
  5 19  1  0  0  0  0
  6  7  2  0  0  0  0
  5  6  1  0  0  0  0
  7 11  1  0  0  0  0
  4  5  2  0  0  0  0
  3 11  2  0  0  0  0
  3  4  1  0  0  0  0
  3 20  1  0  0  0  0
 20 21  1  0  0  0  0
 21 22  1  0  0  0  0
 22 23  1  0  0  0  0
  2 22  2  0  0  0  0
 23 24  1  0  0  0  0
  2 25  1  0  0  0  0
 24 25  2  0  0  0  0
 25 26  1  0  0  0  0
  1 27  1  0  0  0  0
  4 28  1  0  0  0  0
  6 29  1  0  0  0  0
  9 30  1  0  0  0  0
 11 31  1  0  0  0  0
 14 32  1  0  0  0  0
 14 33  1  0  0  0  0
 14 34  1  0  0  0  0
 15 35  1  0  0  0  0
 17 36  1  0  0  0  0
 18 37  1  0  0  0  0
 18 38  1  0  0  0  0
 21 39  1  0  0  0  0
 21 40  1  0  0  0  0
 26 41  1  0  0  0  0
 26 42  1  0  0  0  0
 26 43  1  0  0  0  0
M  END
> <OPENEYE_ISO_SMILES>
Cc1ccncc1NC(=O)Cc2cc(cc(c2)Cl)OCc3nc(no3)C

> <OPENEYE_INCHI>
InChI=1S/C18H17ClN4O3/c1-11-3-4-20-9-16(11)22-17(24)7-13-5-14(19)8-15(6-13)25-10-18-21-12(2)23-26-18/h3-6,8-9H,7,10H2,1-2H3,(H,22,24)

> <OPENEYE_INCHIKEY>
ISRHBBIYTNRSMM-UHFFFAOYSA-N

> <FORMULA>
C18H17ClN4O3

$$$$
