OBO
  -OEChem-05102419323D

 31 33  0     0  0  0  0  0  0999 V2000
   -2.9920   -2.2650   -0.6500 N   0  0  0  0  0  0  0  0  0  0  0  0
   -4.2160    1.4290    0.5960 N   0  0  0  0  0  0  0  0  0  0  0  0
    2.3650    1.0640    0.1700 C   0  0  0  0  0  0  0  0  0  0  0  0
    1.0720    1.3680    0.8830 C   0  0  0  0  0  0  0  0  0  0  0  0
   -0.0110    0.4550    0.3700 C   0  0  0  0  0  0  0  0  0  0  0  0
   -2.2880   -0.2380    0.3260 C   0  0  0  0  0  0  0  0  0  0  0  0
   -2.0300   -1.5150   -0.1400 C   0  0  0  0  0  0  0  0  0  0  0  0
   -4.5910   -0.5720   -0.3010 C   0  0  0  0  0  0  0  0  0  0  0  0
    3.2310    0.1180    0.6850 C   0  0  0  0  0  0  0  0  0  0  0  0
    0.2410   -0.3620   -0.4900 O   0  0  0  0  0  0  0  0  0  0  0  0
    2.6810    1.7280   -1.0000 C   0  0  0  0  0  0  0  0  0  0  0  0
    3.8660    1.4490   -1.6550 C   0  0  0  0  0  0  0  0  0  0  0  0
    4.7350    0.5060   -1.1400 C   0  0  0  0  0  0  0  0  0  0  0  0
    4.4150   -0.1650    0.0270 C   0  0  0  0  0  0  0  0  0  0  0  0
    5.5040   -1.3530    0.6730 Cl  0  0  0  0  0  0  0  0  0  0  0  0
   -1.2610    0.5470    0.8660 N   0  0  0  0  0  0  0  0  0  0  0  0
   -3.5920    0.2530    0.2490 C   0  0  0  0  0  0  0  0  0  0  0  0
   -5.5310    1.3030    0.2650 C   0  0  0  0  0  0  0  0  0  0  0  0
   -5.7490    0.1320   -0.2600 N   0  0  0  0  0  0  0  0  0  0  0  0
   -4.2370   -1.8470   -0.7460 C   0  0  0  0  0  0  0  0  0  0  0  0
   -3.7970    2.2040    1.0020 H   0  0  0  0  0  0  0  0  0  0  0  0
    1.2020    1.2120    1.9540 H   0  0  0  0  0  0  0  0  0  0  0  0
    0.7910    2.4050    0.6990 H   0  0  0  0  0  0  0  0  0  0  0  0
   -1.0250   -1.9070   -0.0850 H   0  0  0  0  0  0  0  0  0  0  0  0
    2.9840   -0.4000    1.6000 H   0  0  0  0  0  0  0  0  0  0  0  0
    2.0010    2.4640   -1.4040 H   0  0  0  0  0  0  0  0  0  0  0  0
    4.1120    1.9670   -2.5700 H   0  0  0  0  0  0  0  0  0  0  0  0
    5.6610    0.2880   -1.6520 H   0  0  0  0  0  0  0  0  0  0  0  0
   -1.4490    1.1560    1.5970 H   0  0  0  0  0  0  0  0  0  0  0  0
   -6.2820    2.0640    0.4160 H   0  0  0  0  0  0  0  0  0  0  0  0
   -4.9890   -2.4960   -1.1700 H   0  0  0  0  0  0  0  0  0  0  0  0
  1 20  2  0  0  0  0
  1  7  1  0  0  0  0
  8 20  1  0  0  0  0
  6  7  2  0  0  0  0
  8 19  1  0  0  0  0
  8 17  2  0  0  0  0
 18 19  2  0  0  0  0
  6 17  1  0  0  0  0
  6 16  1  0  0  0  0
  2 17  1  0  0  0  0
  5 16  1  0  0  0  0
  2 18  1  0  0  0  0
 14 15  1  0  0  0  0
  5 10  2  0  0  0  0
  4  5  1  0  0  0  0
  9 14  2  0  0  0  0
  3  9  1  0  0  0  0
 13 14  1  0  0  0  0
  3  4  1  0  0  0  0
  3 11  2  0  0  0  0
 12 13  2  0  0  0  0
 11 12  1  0  0  0  0
  2 21  1  0  0  0  0
  4 22  1  0  0  0  0
  4 23  1  0  0  0  0
  7 24  1  0  0  0  0
  9 25  1  0  0  0  0
 11 26  1  0  0  0  0
 12 27  1  0  0  0  0
 13 28  1  0  0  0  0
 16 29  1  0  0  0  0
 18 30  1  0  0  0  0
 20 31  1  0  0  0  0
M  END
> <OPENEYE_ISO_SMILES>
c1cc(cc(c1)Cl)CC(=O)Nc2cncc3c2[nH]cn3

> <OPENEYE_INCHI>
InChI=1S/C14H11ClN4O/c15-10-3-1-2-9(4-10)5-13(20)19-12-7-16-6-11-14(12)18-8-17-11/h1-4,6-8H,5H2,(H,17,18)(H,19,20)

> <OPENEYE_INCHIKEY>
NXBRVTFHRPPFLN-UHFFFAOYSA-N

> <FORMULA>
C14H11ClN4O

$$$$
