OCI
  -OEChem-05102419323D

 38 39  0     0  0  0  0  0  0999 V2000
    3.4330    0.0070    1.0880 N   0  0  0  0  0  0  0  0  0  0  0  0
   -5.3050   -0.4030   -0.9980 N   0  0  0  0  0  0  0  0  0  0  0  0
    4.1130   -1.1080   -0.9500 C   0  0  0  0  0  0  0  0  0  0  0  0
    4.4350   -0.3910    0.1950 C   0  0  0  0  0  0  0  0  0  0  0  0
    2.1660    0.1600    0.6550 C   0  0  0  0  0  0  0  0  0  0  0  0
    1.0660    0.4640    1.6380 C   0  0  0  0  0  0  0  0  0  0  0  0
   -0.2440    0.5870    0.9040 C   0  0  0  0  0  0  0  0  0  0  0  0
   -1.8550    1.9330   -0.2550 C   0  0  0  0  0  0  0  0  0  0  0  0
   -1.0360   -0.5290    0.7150 C   0  0  0  0  0  0  0  0  0  0  0  0
   -4.8390   -0.8350    1.3870 O   0  0  0  0  0  0  0  0  0  0  0  0
   -4.6780   -1.4530    0.1180 S   0  0  0  0  0  0  0  0  0  0  0  0
   -5.2070   -2.7340   -0.1950 O   0  0  0  0  0  0  0  0  0  0  0  0
   -3.0470   -1.5420   -0.1550 N   0  0  0  0  0  0  0  0  0  0  0  0
   -2.2440   -0.4160    0.0380 C   0  0  0  0  0  0  0  0  0  0  0  0
   -2.6520    0.8200   -0.4470 C   0  0  0  0  0  0  0  0  0  0  0  0
   -2.3640    3.4790   -0.8600 Cl  0  0  0  0  0  0  0  0  0  0  0  0
   -0.6550    1.8170    0.4250 C   0  0  0  0  0  0  0  0  0  0  0  0
    1.9120    0.0540   -0.5260 O   0  0  0  0  0  0  0  0  0  0  0  0
    5.7680   -0.0740    0.4410 C   0  0  0  0  0  0  0  0  0  0  0  0
    6.1630    0.7020    1.6720 C   0  0  0  0  0  0  0  0  0  0  0  0
    5.0540   -1.4890   -1.7910 N   0  0  0  0  0  0  0  0  0  0  0  0
    6.3260   -1.2090   -1.5840 C   0  0  0  0  0  0  0  0  0  0  0  0
    6.7230   -0.4900   -0.4720 C   0  0  0  0  0  0  0  0  0  0  0  0
    3.6510    0.1690    2.0190 H   0  0  0  0  0  0  0  0  0  0  0  0
   -5.7650    0.3990   -0.7040 H   0  0  0  0  0  0  0  0  0  0  0  0
   -5.2120   -0.5890   -1.9450 H   0  0  0  0  0  0  0  0  0  0  0  0
    3.0820   -1.3600   -1.1510 H   0  0  0  0  0  0  0  0  0  0  0  0
    0.9980   -0.3420    2.3690 H   0  0  0  0  0  0  0  0  0  0  0  0
    1.2840    1.4010    2.1500 H   0  0  0  0  0  0  0  0  0  0  0  0
   -0.7160   -1.4890    1.0920 H   0  0  0  0  0  0  0  0  0  0  0  0
   -2.6490   -2.3770   -0.4480 H   0  0  0  0  0  0  0  0  0  0  0  0
   -3.5890    0.9110   -0.9770 H   0  0  0  0  0  0  0  0  0  0  0  0
   -0.0340    2.6880    0.5740 H   0  0  0  0  0  0  0  0  0  0  0  0
    6.3710    0.0090    2.4870 H   0  0  0  0  0  0  0  0  0  0  0  0
    7.0540    1.2920    1.4590 H   0  0  0  0  0  0  0  0  0  0  0  0
    5.3480    1.3660    1.9590 H   0  0  0  0  0  0  0  0  0  0  0  0
    7.0670   -1.5390   -2.2970 H   0  0  0  0  0  0  0  0  0  0  0  0
    7.7670   -0.2650   -0.3110 H   0  0  0  0  0  0  0  0  0  0  0  0
 21 22  2  0  0  0  0
  3 21  1  0  0  0  0
 22 23  1  0  0  0  0
  3  4  2  0  0  0  0
 19 23  2  0  0  0  0
  4 19  1  0  0  0  0
  1  4  1  0  0  0  0
 19 20  1  0  0  0  0
  5 18  2  0  0  0  0
  1  5  1  0  0  0  0
  5  6  1  0  0  0  0
  8 16  1  0  0  0  0
  8 17  2  0  0  0  0
  7 17  1  0  0  0  0
  8 15  1  0  0  0  0
  6  7  1  0  0  0  0
  2 11  1  0  0  0  0
  7  9  2  0  0  0  0
 14 15  2  0  0  0  0
  9 14  1  0  0  0  0
 13 14  1  0  0  0  0
 11 13  1  0  0  0  0
 10 11  2  0  0  0  0
 11 12  2  0  0  0  0
  1 24  1  0  0  0  0
  2 25  1  0  0  0  0
  2 26  1  0  0  0  0
  3 27  1  0  0  0  0
  6 28  1  0  0  0  0
  6 29  1  0  0  0  0
  9 30  1  0  0  0  0
 13 31  1  0  0  0  0
 15 32  1  0  0  0  0
 17 33  1  0  0  0  0
 20 34  1  0  0  0  0
 20 35  1  0  0  0  0
 20 36  1  0  0  0  0
 22 37  1  0  0  0  0
 23 38  1  0  0  0  0
M  END
> <OPENEYE_ISO_SMILES>
Cc1ccncc1NC(=O)Cc2cc(cc(c2)Cl)NS(=O)(=O)N

> <OPENEYE_INCHI>
InChI=1S/C14H15ClN4O3S/c1-9-2-3-17-8-13(9)18-14(20)6-10-4-11(15)7-12(5-10)19-23(16,21)22/h2-5,7-8,19H,6H2,1H3,(H,18,20)(H2,16,21,22)

> <OPENEYE_INCHIKEY>
NLTIJDKXVUTASZ-UHFFFAOYSA-N

> <FORMULA>
C14H15ClN4O3S

$$$$
