OD7
  -OEChem-05102419323D

 62 66  0     0  0  0  0  0  0999 V2000
    3.4410   -1.4370   -2.7340 N   0  0  0  0  0  0  0  0  0  0  0  0
   -0.2280    1.0270   -1.4050 N   0  0  0  0  0  0  0  0  0  0  0  0
    4.4990   -2.1280   -0.9750 C   0  0  0  0  0  0  0  0  0  0  0  0
    2.1750    0.5750   -1.7760 C   0  0  0  0  0  0  0  0  0  0  0  0
    0.7680    0.1230   -1.4790 C   0  0  0  0  0  0  0  0  0  0  0  0
    0.0280    2.4300   -1.7410 C   0  0  0  0  0  0  0  0  0  0  0  0
    0.3220    3.2030   -0.4810 C   0  0  0  0  0  0  0  0  0  0  0  0
    1.8920    4.1300    1.0610 C   0  0  0  0  0  0  0  0  0  0  0  0
   -1.5080    0.6260   -1.0060 C   0  0  0  0  0  0  0  0  0  0  0  0
   -2.9830   -1.0550   -0.1410 C   0  0  0  0  0  0  0  0  0  0  0  0
   -3.8350    1.1160   -0.6940 C   0  0  0  0  0  0  0  0  0  0  0  0
   -5.8720   -1.7880   -0.6310 C   0  0  0  0  0  0  0  0  0  0  0  0
   -7.2450   -2.2590   -0.1450 C   0  0  0  0  0  0  0  0  0  0  0  0
   -6.7690   -1.5050    2.1090 C   0  0  0  0  0  0  0  0  0  0  0  0
    3.7530   -1.0060   -0.5720 C   0  0  0  0  0  0  0  0  0  0  0  0
    0.5330   -1.0540   -1.3080 O   0  0  0  0  0  0  0  0  0  0  0  0
    3.0840   -0.5700   -1.6900 N   0  0  0  0  0  0  0  0  0  0  0  0
    4.2590   -2.3260   -2.2920 N   0  0  0  0  0  0  0  0  0  0  0  0
    5.2940   -2.7980   -0.0360 C   0  0  0  0  0  0  0  0  0  0  0  0
    5.3410   -2.3610    1.2540 C   0  0  0  0  0  0  0  0  0  0  0  0
    3.8110   -0.5730    0.7480 C   0  0  0  0  0  0  0  0  0  0  0  0
    4.6030   -1.2500    1.6560 C   0  0  0  0  0  0  0  0  0  0  0  0
    4.6620   -0.8290    2.9470 O   0  0  0  0  0  0  0  0  0  0  0  0
    5.4990   -1.5730    3.8340 C   0  0  0  0  0  0  0  0  0  0  0  0
   -0.6760    3.6670    0.2470 N   0  0  0  0  0  0  0  0  0  0  0  0
   -0.4670    4.3480    1.3560 C   0  0  0  0  0  0  0  0  0  0  0  0
    0.8170    4.6020    1.7990 C   0  0  0  0  0  0  0  0  0  0  0  0
    1.6330    3.4120   -0.0970 C   0  0  0  0  0  0  0  0  0  0  0  0
   -2.5730    1.5150   -1.0880 C   0  0  0  0  0  0  0  0  0  0  0  0
   -4.0400   -0.1670   -0.2180 C   0  0  0  0  0  0  0  0  0  0  0  0
   -1.7180   -0.6620   -0.5330 C   0  0  0  0  0  0  0  0  0  0  0  0
   -5.4170   -0.5970    0.2160 C   0  0  0  0  0  0  0  0  0  0  0  0
   -5.3820   -1.0110    1.6900 C   0  0  0  0  0  0  0  0  0  0  0  0
   -7.1590   -2.6450    1.2700 N   0  0  0  0  0  0  0  0  0  0  0  0
    2.2170    0.9980   -2.7800 H   0  0  0  0  0  0  0  0  0  0  0  0
    2.4740    1.3320   -1.0500 H   0  0  0  0  0  0  0  0  0  0  0  0
    0.8840    2.4920   -2.4120 H   0  0  0  0  0  0  0  0  0  0  0  0
   -0.8490    2.8530   -2.2300 H   0  0  0  0  0  0  0  0  0  0  0  0
    2.9060    4.3130    1.3820 H   0  0  0  0  0  0  0  0  0  0  0  0
   -3.1460   -2.0570    0.2280 H   0  0  0  0  0  0  0  0  0  0  0  0
   -4.6620    1.8070   -0.7530 H   0  0  0  0  0  0  0  0  0  0  0  0
   -5.1530   -2.6010   -0.5310 H   0  0  0  0  0  0  0  0  0  0  0  0
   -5.9390   -1.4880   -1.6760 H   0  0  0  0  0  0  0  0  0  0  0  0
   -7.9670   -1.4500   -0.2570 H   0  0  0  0  0  0  0  0  0  0  0  0
   -7.5650   -3.1160   -0.7360 H   0  0  0  0  0  0  0  0  0  0  0  0
   -6.7440   -1.8140    3.1540 H   0  0  0  0  0  0  0  0  0  0  0  0
   -7.4930   -0.6990    1.9860 H   0  0  0  0  0  0  0  0  0  0  0  0
    5.8710   -3.6610   -0.3350 H   0  0  0  0  0  0  0  0  0  0  0  0
    5.9560   -2.8820    1.9730 H   0  0  0  0  0  0  0  0  0  0  0  0
    3.2410    0.2890    1.0610 H   0  0  0  0  0  0  0  0  0  0  0  0
    6.5270   -1.5480    3.4700 H   0  0  0  0  0  0  0  0  0  0  0  0
    5.4560   -1.1330    4.8300 H   0  0  0  0  0  0  0  0  0  0  0  0
    5.1550   -2.6060    3.8780 H   0  0  0  0  0  0  0  0  0  0  0  0
   -1.3100    4.7120    1.9260 H   0  0  0  0  0  0  0  0  0  0  0  0
    0.9820    5.1600    2.7080 H   0  0  0  0  0  0  0  0  0  0  0  0
    2.4450    3.0260   -0.6950 H   0  0  0  0  0  0  0  0  0  0  0  0
   -2.4140    2.5160   -1.4590 H   0  0  0  0  0  0  0  0  0  0  0  0
   -0.8930   -1.3570   -0.4730 H   0  0  0  0  0  0  0  0  0  0  0  0
   -6.1150    0.2300    0.0860 H   0  0  0  0  0  0  0  0  0  0  0  0
   -5.1000   -0.1550    2.3030 H   0  0  0  0  0  0  0  0  0  0  0  0
   -4.6550   -1.8120    1.8260 H   0  0  0  0  0  0  0  0  0  0  0  0
   -6.5240   -3.4190    1.3950 H   0  0  0  0  0  0  0  0  0  0  0  0
  1 18  2  0  0  0  0
  3 18  1  0  0  0  0
  3 19  2  0  0  0  0
 19 20  1  0  0  0  0
  1 17  1  0  0  0  0
  3 15  1  0  0  0  0
 20 22  2  0  0  0  0
 15 17  1  0  0  0  0
  4 17  1  0  0  0  0
 15 21  2  0  0  0  0
 21 22  1  0  0  0  0
 22 23  1  0  0  0  0
  4  5  1  0  0  0  0
  5 16  2  0  0  0  0
  2  5  1  0  0  0  0
 23 24  1  0  0  0  0
 25 26  2  0  0  0  0
  7 25  1  0  0  0  0
 26 27  1  0  0  0  0
  2  6  1  0  0  0  0
  2  9  1  0  0  0  0
  6  7  1  0  0  0  0
  7 28  2  0  0  0  0
  9 29  2  0  0  0  0
 11 29  1  0  0  0  0
  9 31  1  0  0  0  0
  8 27  2  0  0  0  0
 11 30  2  0  0  0  0
 10 31  2  0  0  0  0
  8 28  1  0  0  0  0
 10 30  1  0  0  0  0
 30 32  1  0  0  0  0
 32 33  1  0  0  0  0
 14 33  1  0  0  0  0
 12 32  1  0  0  0  0
 14 34  1  0  0  0  0
 12 13  1  0  0  0  0
 13 34  1  0  0  0  0
  4 35  1  0  0  0  0
  4 36  1  0  0  0  0
  6 37  1  0  0  0  0
  6 38  1  0  0  0  0
  8 39  1  0  0  0  0
 10 40  1  0  0  0  0
 11 41  1  0  0  0  0
 12 42  1  0  0  0  0
 12 43  1  0  0  0  0
 13 44  1  0  0  0  0
 13 45  1  0  0  0  0
 14 46  1  0  0  0  0
 14 47  1  0  0  0  0
 19 48  1  0  0  0  0
 20 49  1  0  0  0  0
 21 50  1  0  0  0  0
 24 51  1  0  0  0  0
 24 52  1  0  0  0  0
 24 53  1  0  0  0  0
 26 54  1  0  0  0  0
 27 55  1  0  0  0  0
 28 56  1  0  0  0  0
 29 57  1  0  0  0  0
 31 58  1  0  0  0  0
 32 59  1  0  0  0  0
 33 60  1  0  0  0  0
 33 61  1  0  0  0  0
 34 62  1  0  0  0  0
M  END
> <OPENEYE_ISO_SMILES>
COc1ccc2c(c1)n(nn2)CC(=O)N(Cc3ccccn3)c4ccc(cc4)C5CCNCC5

> <OPENEYE_INCHI>
InChI=1S/C26H28N6O2/c1-34-23-9-10-24-25(16-23)32(30-29-24)18-26(33)31(17-21-4-2-3-13-28-21)22-7-5-19(6-8-22)20-11-14-27-15-12-20/h2-10,13,16,20,27H,11-12,14-15,17-18H2,1H3

> <OPENEYE_INCHIKEY>
NIAFAWJPFVWDCR-UHFFFAOYSA-N

> <FORMULA>
C26H28N6O2

$$$$
