OE6
  -OEChem-05102419323D

 31 33  0     0  0  0  0  0  0999 V2000
   -2.2000    0.0440   -0.0550 N   0  0  0  0  0  0  0  0  0  0  0  0
   -3.2080   -1.4590   -1.2990 N   0  0  0  0  0  0  0  0  0  0  0  0
    2.5230    1.0630    0.1340 C   0  0  0  0  0  0  0  0  0  0  0  0
    1.1980    1.4720    0.7240 C   0  0  0  0  0  0  0  0  0  0  0  0
    0.1000    0.6330    0.1230 C   0  0  0  0  0  0  0  0  0  0  0  0
   -4.1670   -0.8520   -0.5710 C   0  0  0  0  0  0  0  0  0  0  0  0
   -5.5570   -1.0120   -0.4960 C   0  0  0  0  0  0  0  0  0  0  0  0
   -5.6710    0.7330    1.1370 C   0  0  0  0  0  0  0  0  0  0  0  0
    3.2670    0.0640    0.7330 C   0  0  0  0  0  0  0  0  0  0  0  0
    0.3660   -0.2130   -0.7030 O   0  0  0  0  0  0  0  0  0  0  0  0
    2.9910    1.6830   -1.0090 C   0  0  0  0  0  0  0  0  0  0  0  0
    4.2060    1.3080   -1.5520 C   0  0  0  0  0  0  0  0  0  0  0  0
    4.9530    0.3120   -0.9510 C   0  0  0  0  0  0  0  0  0  0  0  0
    4.4800   -0.3150    0.1880 C   0  0  0  0  0  0  0  0  0  0  0  0
    5.4150   -1.5700    0.9390 Cl  0  0  0  0  0  0  0  0  0  0  0  0
   -1.1790    0.8240    0.5040 N   0  0  0  0  0  0  0  0  0  0  0  0
   -3.5430    0.1200    0.2300 C   0  0  0  0  0  0  0  0  0  0  0  0
   -2.0540   -0.9640   -1.0200 N   0  0  0  0  0  0  0  0  0  0  0  0
   -4.3060    0.9100    1.0830 C   0  0  0  0  0  0  0  0  0  0  0  0
   -6.2870   -0.2340    0.3540 C   0  0  0  0  0  0  0  0  0  0  0  0
    1.2190    1.3230    1.8040 H   0  0  0  0  0  0  0  0  0  0  0  0
    1.0120    2.5240    0.5060 H   0  0  0  0  0  0  0  0  0  0  0  0
   -6.0500   -1.7500   -1.1120 H   0  0  0  0  0  0  0  0  0  0  0  0
   -6.2650    1.3450    1.7990 H   0  0  0  0  0  0  0  0  0  0  0  0
    2.9010   -0.4200    1.6260 H   0  0  0  0  0  0  0  0  0  0  0  0
    2.4070    2.4610   -1.4790 H   0  0  0  0  0  0  0  0  0  0  0  0
    4.5710    1.7920   -2.4450 H   0  0  0  0  0  0  0  0  0  0  0  0
    5.9020    0.0190   -1.3750 H   0  0  0  0  0  0  0  0  0  0  0  0
   -1.3930    1.5010    1.1650 H   0  0  0  0  0  0  0  0  0  0  0  0
   -3.8310    1.6580    1.7000 H   0  0  0  0  0  0  0  0  0  0  0  0
   -7.3580   -0.3620    0.4070 H   0  0  0  0  0  0  0  0  0  0  0  0
  2 18  2  0  0  0  0
  2  6  1  0  0  0  0
  6  7  2  0  0  0  0
  7 20  1  0  0  0  0
  1 18  1  0  0  0  0
  6 17  1  0  0  0  0
  8 20  2  0  0  0  0
  1 17  1  0  0  0  0
  1 16  1  0  0  0  0
 17 19  2  0  0  0  0
  8 19  1  0  0  0  0
  5 16  1  0  0  0  0
  5 10  2  0  0  0  0
  4  5  1  0  0  0  0
 14 15  1  0  0  0  0
  9 14  2  0  0  0  0
  3  9  1  0  0  0  0
 13 14  1  0  0  0  0
  3  4  1  0  0  0  0
  3 11  2  0  0  0  0
 12 13  2  0  0  0  0
 11 12  1  0  0  0  0
  4 21  1  0  0  0  0
  4 22  1  0  0  0  0
  7 23  1  0  0  0  0
  8 24  1  0  0  0  0
  9 25  1  0  0  0  0
 11 26  1  0  0  0  0
 12 27  1  0  0  0  0
 13 28  1  0  0  0  0
 16 29  1  0  0  0  0
 19 30  1  0  0  0  0
 20 31  1  0  0  0  0
M  END
> <OPENEYE_ISO_SMILES>
c1ccc2c(c1)nnn2NC(=O)Cc3cccc(c3)Cl

> <OPENEYE_INCHI>
InChI=1S/C14H11ClN4O/c15-11-5-3-4-10(8-11)9-14(20)17-19-13-7-2-1-6-12(13)16-18-19/h1-8H,9H2,(H,17,20)

> <OPENEYE_INCHIKEY>
OYXJREXTFZDGLT-UHFFFAOYSA-N

> <FORMULA>
C14H11ClN4O

$$$$
