OEO
  -OEChem-05102419323D

 52 55  0     0  0  0  0  0  0999 V2000
    0.7980   -0.1690    1.1070 N   0  0  0  0  0  0  0  0  0  0  0  0
    2.1280    1.5590    0.0680 C   0  0  0  0  0  0  0  0  0  0  0  0
    2.0300    0.2900    0.6230 C   0  0  0  0  0  0  0  0  0  0  0  0
    3.1520   -0.5240    0.6980 C   0  0  0  0  0  0  0  0  0  0  0  0
    4.3660   -0.0720    0.2210 C   0  0  0  0  0  0  0  0  0  0  0  0
    0.7260   -1.4310    1.8470 C   0  0  0  0  0  0  0  0  0  0  0  0
    1.3560   -3.2020    0.1450 C   0  0  0  0  0  0  0  0  0  0  0  0
   -0.3200    0.5540    0.8980 C   0  0  0  0  0  0  0  0  0  0  0  0
   -2.7270    1.0390    1.0640 C   0  0  0  0  0  0  0  0  0  0  0  0
   -4.7430    2.7470    0.2760 C   0  0  0  0  0  0  0  0  0  0  0  0
   -4.7930    0.3130   -2.4930 C   0  0  0  0  0  0  0  0  0  0  0  0
   -3.7740   -0.5510   -2.0960 C   0  0  0  0  0  0  0  0  0  0  0  0
   -3.0830   -0.3390   -0.9410 C   0  0  0  0  0  0  0  0  0  0  0  0
   -0.2830    1.5380    0.1890 O   0  0  0  0  0  0  0  0  0  0  0  0
   -1.6170    0.1400    1.5440 C   0  0  0  0  0  0  0  0  0  0  0  0
   -3.4020    0.7660   -0.1400 C   0  0  0  0  0  0  0  0  0  0  0  0
   -5.1290    1.3960   -1.7390 C   0  0  0  0  0  0  0  0  0  0  0  0
   -4.4400    1.6470   -0.5430 C   0  0  0  0  0  0  0  0  0  0  0  0
   -4.0770    2.9340    1.3920 N   0  0  0  0  0  0  0  0  0  0  0  0
   -3.1010    2.1300    1.7890 C   0  0  0  0  0  0  0  0  0  0  0  0
    0.3920   -2.5520    0.8960 C   0  0  0  0  0  0  0  0  0  0  0  0
   -0.8540   -2.9930    0.7160 C   0  0  0  0  0  0  0  0  0  0  0  0
   -0.8520   -4.3010   -0.4600 S   0  0  0  0  0  0  0  0  0  0  0  0
    0.8920   -4.1680   -0.6500 C   0  0  0  0  0  0  0  0  0  0  0  0
    3.3420    2.0120   -0.4100 C   0  0  0  0  0  0  0  0  0  0  0  0
    4.4650    1.1980   -0.3340 C   0  0  0  0  0  0  0  0  0  0  0  0
    5.6950    1.6560   -0.8170 N   0  0  0  0  0  0  0  0  0  0  0  0
    6.8530    0.7580   -0.8440 C   0  0  0  0  0  0  0  0  0  0  0  0
    5.8270    3.0350   -1.2950 C   0  0  0  0  0  0  0  0  0  0  0  0
    1.2540    2.1900    0.0050 H   0  0  0  0  0  0  0  0  0  0  0  0
    3.0750   -1.5110    1.1290 H   0  0  0  0  0  0  0  0  0  0  0  0
    5.2400   -0.7050    0.2800 H   0  0  0  0  0  0  0  0  0  0  0  0
    1.6870   -1.6300    2.3200 H   0  0  0  0  0  0  0  0  0  0  0  0
   -0.0480   -1.3610    2.6110 H   0  0  0  0  0  0  0  0  0  0  0  0
    2.4030   -2.9440    0.1940 H   0  0  0  0  0  0  0  0  0  0  0  0
   -5.5280    3.4320   -0.0070 H   0  0  0  0  0  0  0  0  0  0  0  0
   -5.3240    0.1200   -3.4140 H   0  0  0  0  0  0  0  0  0  0  0  0
   -3.5280   -1.4030   -2.7140 H   0  0  0  0  0  0  0  0  0  0  0  0
   -2.2960   -1.0170   -0.6450 H   0  0  0  0  0  0  0  0  0  0  0  0
   -1.8440   -0.8910    1.2760 H   0  0  0  0  0  0  0  0  0  0  0  0
   -1.5260    0.2230    2.6270 H   0  0  0  0  0  0  0  0  0  0  0  0
   -5.9210    2.0570   -2.0590 H   0  0  0  0  0  0  0  0  0  0  0  0
   -2.5930    2.3410    2.7190 H   0  0  0  0  0  0  0  0  0  0  0  0
   -1.7290   -2.6070    1.2160 H   0  0  0  0  0  0  0  0  0  0  0  0
    1.4950   -4.7780   -1.3060 H   0  0  0  0  0  0  0  0  0  0  0  0
    3.4180    2.9970   -0.8450 H   0  0  0  0  0  0  0  0  0  0  0  0
    6.8810    0.2310   -1.7970 H   0  0  0  0  0  0  0  0  0  0  0  0
    7.7670    1.3390   -0.7220 H   0  0  0  0  0  0  0  0  0  0  0  0
    6.7710    0.0360   -0.0320 H   0  0  0  0  0  0  0  0  0  0  0  0
    4.8970    3.5730   -1.1120 H   0  0  0  0  0  0  0  0  0  0  0  0
    6.6420    3.5270   -0.7650 H   0  0  0  0  0  0  0  0  0  0  0  0
    6.0390    3.0300   -2.3640 H   0  0  0  0  0  0  0  0  0  0  0  0
 10 19  2  0  0  0  0
 19 20  1  0  0  0  0
 10 18  1  0  0  0  0
  9 20  2  0  0  0  0
 17 18  2  0  0  0  0
 16 18  1  0  0  0  0
 11 17  1  0  0  0  0
  9 16  1  0  0  0  0
  9 15  1  0  0  0  0
 13 16  2  0  0  0  0
  8 15  1  0  0  0  0
  8 14  2  0  0  0  0
 11 12  2  0  0  0  0
  1  8  1  0  0  0  0
 22 23  1  0  0  0  0
 23 24  1  0  0  0  0
 12 13  1  0  0  0  0
 21 22  2  0  0  0  0
  1  6  1  0  0  0  0
  1  3  1  0  0  0  0
  6 21  1  0  0  0  0
  7 21  1  0  0  0  0
  7 24  2  0  0  0  0
  3  4  2  0  0  0  0
  4  5  1  0  0  0  0
  2  3  1  0  0  0  0
  5 26  2  0  0  0  0
  2 25  2  0  0  0  0
 25 26  1  0  0  0  0
 26 27  1  0  0  0  0
 27 28  1  0  0  0  0
 27 29  1  0  0  0  0
  2 30  1  0  0  0  0
  4 31  1  0  0  0  0
  5 32  1  0  0  0  0
  6 33  1  0  0  0  0
  6 34  1  0  0  0  0
  7 35  1  0  0  0  0
 10 36  1  0  0  0  0
 11 37  1  0  0  0  0
 12 38  1  0  0  0  0
 13 39  1  0  0  0  0
 15 40  1  0  0  0  0
 15 41  1  0  0  0  0
 17 42  1  0  0  0  0
 20 43  1  0  0  0  0
 22 44  1  0  0  0  0
 24 45  1  0  0  0  0
 25 46  1  0  0  0  0
 28 47  1  0  0  0  0
 28 48  1  0  0  0  0
 28 49  1  0  0  0  0
 29 50  1  0  0  0  0
 29 51  1  0  0  0  0
 29 52  1  0  0  0  0
M  END
> <OPENEYE_ISO_SMILES>
CN(C)c1ccc(cc1)N(Cc2ccsc2)C(=O)Cc3cncc4c3cccc4

> <OPENEYE_INCHI>
InChI=1S/C24H23N3OS/c1-26(2)21-7-9-22(10-8-21)27(16-18-11-12-29-17-18)24(28)13-20-15-25-14-19-5-3-4-6-23(19)20/h3-12,14-15,17H,13,16H2,1-2H3

> <OPENEYE_INCHIKEY>
NWMNITATBGAXEW-UHFFFAOYSA-N

> <FORMULA>
C24H23N3OS

$$$$
