OFX
  -OEChem-05102419323D

 49 52  0     0  0  0  0  0  0999 V2000
   -0.5870    0.5210   -0.6750 N   0  0  0  0  0  0  0  0  0  0  0  0
    0.0510    3.6590   -0.0670 N   0  0  0  0  0  0  0  0  0  0  0  0
   -2.1880   -0.3560    0.9070 C   0  0  0  0  0  0  0  0  0  0  0  0
   -1.7630   -0.1910   -0.4050 C   0  0  0  0  0  0  0  0  0  0  0  0
   -2.5030   -0.7320   -1.4480 C   0  0  0  0  0  0  0  0  0  0  0  0
   -3.6620   -1.4320   -1.1810 C   0  0  0  0  0  0  0  0  0  0  0  0
   -0.6280    1.6990   -1.5460 C   0  0  0  0  0  0  0  0  0  0  0  0
   -2.0860    3.5010   -0.4830 C   0  0  0  0  0  0  0  0  0  0  0  0
    1.8290    0.9420   -0.3490 C   0  0  0  0  0  0  0  0  0  0  0  0
    5.7280   -1.8860    0.6120 C   0  0  0  0  0  0  0  0  0  0  0  0
    4.9190   -2.1910   -1.6200 C   0  0  0  0  0  0  0  0  0  0  0  0
    0.6270   -0.8870    0.5350 O   0  0  0  0  0  0  0  0  0  0  0  0
    0.5810    0.1260   -0.1310 C   0  0  0  0  0  0  0  0  0  0  0  0
    2.9550    0.3070    0.3400 N   0  0  0  0  0  0  0  0  0  0  0  0
    3.8110   -0.6350   -0.1780 C   0  0  0  0  0  0  0  0  0  0  0  0
    3.9190   -1.2670   -1.4120 C   0  0  0  0  0  0  0  0  0  0  0  0
    5.8180   -2.4950   -0.6060 C   0  0  0  0  0  0  0  0  0  0  0  0
    4.7210   -0.9420    0.8490 C   0  0  0  0  0  0  0  0  0  0  0  0
    4.3920   -0.1960    1.9220 N   0  0  0  0  0  0  0  0  0  0  0  0
    3.3710    0.5400    1.6590 N   0  0  0  0  0  0  0  0  0  0  0  0
   -0.8820    2.9290   -0.7140 C   0  0  0  0  0  0  0  0  0  0  0  0
   -0.6030    4.7100    0.5890 N   0  0  0  0  0  0  0  0  0  0  0  0
   -1.8840    4.6130    0.3410 C   0  0  0  0  0  0  0  0  0  0  0  0
   -3.3470   -1.0570    1.1740 C   0  0  0  0  0  0  0  0  0  0  0  0
   -4.0880   -1.5970    0.1310 C   0  0  0  0  0  0  0  0  0  0  0  0
   -5.2630   -2.3070    0.4010 N   0  0  0  0  0  0  0  0  0  0  0  0
   -5.7730   -2.3840    1.7720 C   0  0  0  0  0  0  0  0  0  0  0  0
   -5.9820   -2.9750   -0.6870 C   0  0  0  0  0  0  0  0  0  0  0  0
    1.0040    3.4830   -0.0530 H   0  0  0  0  0  0  0  0  0  0  0  0
   -1.6100    0.0600    1.7180 H   0  0  0  0  0  0  0  0  0  0  0  0
   -2.1720   -0.6030   -2.4680 H   0  0  0  0  0  0  0  0  0  0  0  0
   -4.2390   -1.8520   -1.9920 H   0  0  0  0  0  0  0  0  0  0  0  0
    0.3260    1.8010   -2.0640 H   0  0  0  0  0  0  0  0  0  0  0  0
   -1.4280    1.5820   -2.2770 H   0  0  0  0  0  0  0  0  0  0  0  0
   -3.0370    3.1560   -0.8630 H   0  0  0  0  0  0  0  0  0  0  0  0
    2.0420    1.0000   -1.4160 H   0  0  0  0  0  0  0  0  0  0  0  0
    1.6800    1.9460    0.0470 H   0  0  0  0  0  0  0  0  0  0  0  0
    6.4310   -2.1340    1.3930 H   0  0  0  0  0  0  0  0  0  0  0  0
    5.0040   -2.6830   -2.5770 H   0  0  0  0  0  0  0  0  0  0  0  0
    3.2220   -1.0350   -2.2040 H   0  0  0  0  0  0  0  0  0  0  0  0
    6.5960   -3.2220   -0.7830 H   0  0  0  0  0  0  0  0  0  0  0  0
   -2.6520    5.2790    0.7060 H   0  0  0  0  0  0  0  0  0  0  0  0
   -3.6780   -1.1860    2.1940 H   0  0  0  0  0  0  0  0  0  0  0  0
   -6.4520   -1.5500    1.9540 H   0  0  0  0  0  0  0  0  0  0  0  0
   -6.3080   -3.3230    1.9090 H   0  0  0  0  0  0  0  0  0  0  0  0
   -4.9410   -2.3330    2.4730 H   0  0  0  0  0  0  0  0  0  0  0  0
   -5.5080   -2.7330   -1.6380 H   0  0  0  0  0  0  0  0  0  0  0  0
   -5.9550   -4.0540   -0.5310 H   0  0  0  0  0  0  0  0  0  0  0  0
   -7.0170   -2.6350   -0.7000 H   0  0  0  0  0  0  0  0  0  0  0  0
 19 20  2  0  0  0  0
 18 19  1  0  0  0  0
 10 18  2  0  0  0  0
 10 17  1  0  0  0  0
 14 20  1  0  0  0  0
 15 18  1  0  0  0  0
 11 17  2  0  0  0  0
 14 15  1  0  0  0  0
  9 14  1  0  0  0  0
 15 16  2  0  0  0  0
 11 16  1  0  0  0  0
  9 13  1  0  0  0  0
 12 13  2  0  0  0  0
  1 13  1  0  0  0  0
 22 23  2  0  0  0  0
  2 22  1  0  0  0  0
  1  4  1  0  0  0  0
  1  7  1  0  0  0  0
  8 23  1  0  0  0  0
  2 21  1  0  0  0  0
  3  4  2  0  0  0  0
  3 24  1  0  0  0  0
  8 21  2  0  0  0  0
  7 21  1  0  0  0  0
  4  5  1  0  0  0  0
 24 25  2  0  0  0  0
  5  6  2  0  0  0  0
  6 25  1  0  0  0  0
 25 26  1  0  0  0  0
 26 28  1  0  0  0  0
 26 27  1  0  0  0  0
  2 29  1  0  0  0  0
  3 30  1  0  0  0  0
  5 31  1  0  0  0  0
  6 32  1  0  0  0  0
  7 33  1  0  0  0  0
  7 34  1  0  0  0  0
  8 35  1  0  0  0  0
  9 36  1  0  0  0  0
  9 37  1  0  0  0  0
 10 38  1  0  0  0  0
 11 39  1  0  0  0  0
 16 40  1  0  0  0  0
 17 41  1  0  0  0  0
 23 42  1  0  0  0  0
 24 43  1  0  0  0  0
 27 44  1  0  0  0  0
 27 45  1  0  0  0  0
 27 46  1  0  0  0  0
 28 47  1  0  0  0  0
 28 48  1  0  0  0  0
 28 49  1  0  0  0  0
M  END
> <OPENEYE_ISO_SMILES>
CN(C)c1ccc(cc1)N(Cc2ccn[nH]2)C(=O)Cn3c4ccccc4nn3

> <OPENEYE_INCHI>
InChI=1S/C20H21N7O/c1-25(2)16-7-9-17(10-8-16)26(13-15-11-12-21-22-15)20(28)14-27-19-6-4-3-5-18(19)23-24-27/h3-12H,13-14H2,1-2H3,(H,21,22)

> <OPENEYE_INCHIKEY>
NAUKDTRKBNSCDS-UHFFFAOYSA-N

> <FORMULA>
C20H21N7O

$$$$
