OHC
  -OEChem-05102419323D

 41 42  0     0  0  0  0  0  0999 V2000
    3.0200    0.4360    1.0700 N   0  0  0  0  0  0  0  0  0  0  0  0
   -2.8580   -1.3540   -0.4220 C   0  0  0  0  0  0  0  0  0  0  0  0
   -2.0010   -2.2830    0.1400 C   0  0  0  0  0  0  0  0  0  0  0  0
   -0.8620   -1.8600    0.8030 C   0  0  0  0  0  0  0  0  0  0  0  0
   -0.5820   -0.5100    0.9030 C   0  0  0  0  0  0  0  0  0  0  0  0
    0.6590   -0.0500    1.6240 C   0  0  0  0  0  0  0  0  0  0  0  0
    4.1090    0.4080    0.1920 C   0  0  0  0  0  0  0  0  0  0  0  0
    6.2600    1.1770   -0.4980 C   0  0  0  0  0  0  0  0  0  0  0  0
    5.2440    2.1910    1.5690 C   0  0  0  0  0  0  0  0  0  0  0  0
    1.6280   -0.2390   -0.5200 O   0  0  0  0  0  0  0  0  0  0  0  0
    1.8030    0.0420    0.6470 C   0  0  0  0  0  0  0  0  0  0  0  0
    5.2060    1.2420    0.3990 C   0  0  0  0  0  0  0  0  0  0  0  0
    6.1900    0.2950   -1.5600 C   0  0  0  0  0  0  0  0  0  0  0  0
    5.1420   -0.4890   -1.7220 N   0  0  0  0  0  0  0  0  0  0  0  0
    4.1150   -0.4560   -0.8950 C   0  0  0  0  0  0  0  0  0  0  0  0
   -2.3540   -3.9780    0.0150 Cl  0  0  0  0  0  0  0  0  0  0  0  0
   -1.4390    0.4170    0.3400 C   0  0  0  0  0  0  0  0  0  0  0  0
   -2.5770   -0.0040   -0.3210 C   0  0  0  0  0  0  0  0  0  0  0  0
   -3.5080    1.0070   -0.9390 C   0  0  0  0  0  0  0  0  0  0  0  0
   -4.5250    1.3970    0.0410 N   0  0  0  0  0  0  0  0  0  0  0  0
   -5.4710    2.2970   -0.2920 C   0  0  0  0  0  0  0  0  0  0  0  0
   -5.4800    2.7850   -1.4020 O   0  0  0  0  0  0  0  0  0  0  0  0
   -6.5170    2.6980    0.7160 C   0  0  0  0  0  0  0  0  0  0  0  0
    3.1420    0.7350    1.9850 H   0  0  0  0  0  0  0  0  0  0  0  0
   -3.7450   -1.6830   -0.9430 H   0  0  0  0  0  0  0  0  0  0  0  0
   -0.1930   -2.5850    1.2420 H   0  0  0  0  0  0  0  0  0  0  0  0
    0.4790    0.9300    2.0660 H   0  0  0  0  0  0  0  0  0  0  0  0
    0.9080   -0.7630    2.4100 H   0  0  0  0  0  0  0  0  0  0  0  0
    7.1260    1.8090   -0.3680 H   0  0  0  0  0  0  0  0  0  0  0  0
    5.6970    1.6930    2.4260 H   0  0  0  0  0  0  0  0  0  0  0  0
    5.8330    3.0690    1.3050 H   0  0  0  0  0  0  0  0  0  0  0  0
    4.2290    2.4970    1.8220 H   0  0  0  0  0  0  0  0  0  0  0  0
    7.0090    0.2410   -2.2620 H   0  0  0  0  0  0  0  0  0  0  0  0
    3.2710   -1.1070   -1.0660 H   0  0  0  0  0  0  0  0  0  0  0  0
   -1.2190    1.4720    0.4190 H   0  0  0  0  0  0  0  0  0  0  0  0
   -2.9390    1.8870   -1.2420 H   0  0  0  0  0  0  0  0  0  0  0  0
   -3.9920    0.5700   -1.8120 H   0  0  0  0  0  0  0  0  0  0  0  0
   -4.5180    1.0070    0.9290 H   0  0  0  0  0  0  0  0  0  0  0  0
   -6.3490    2.1590    1.6480 H   0  0  0  0  0  0  0  0  0  0  0  0
   -6.4530    3.7710    0.8990 H   0  0  0  0  0  0  0  0  0  0  0  0
   -7.5070    2.4540    0.3290 H   0  0  0  0  0  0  0  0  0  0  0  0
 13 14  2  0  0  0  0
 14 15  1  0  0  0  0
  8 13  1  0  0  0  0
  7 15  2  0  0  0  0
  8 12  2  0  0  0  0
  7 12  1  0  0  0  0
  1  7  1  0  0  0  0
  9 12  1  0  0  0  0
  1 11  1  0  0  0  0
 10 11  2  0  0  0  0
  6 11  1  0  0  0  0
  3 16  1  0  0  0  0
  3  4  2  0  0  0  0
  4  5  1  0  0  0  0
  2  3  1  0  0  0  0
  5  6  1  0  0  0  0
  5 17  2  0  0  0  0
  2 18  2  0  0  0  0
 21 22  2  0  0  0  0
 21 23  1  0  0  0  0
 20 21  1  0  0  0  0
 17 18  1  0  0  0  0
 18 19  1  0  0  0  0
 19 20  1  0  0  0  0
  1 24  1  0  0  0  0
  2 25  1  0  0  0  0
  4 26  1  0  0  0  0
  6 27  1  0  0  0  0
  6 28  1  0  0  0  0
  8 29  1  0  0  0  0
  9 30  1  0  0  0  0
  9 31  1  0  0  0  0
  9 32  1  0  0  0  0
 13 33  1  0  0  0  0
 15 34  1  0  0  0  0
 17 35  1  0  0  0  0
 19 36  1  0  0  0  0
 19 37  1  0  0  0  0
 20 38  1  0  0  0  0
 23 39  1  0  0  0  0
 23 40  1  0  0  0  0
 23 41  1  0  0  0  0
M  END
> <OPENEYE_ISO_SMILES>
Cc1ccncc1NC(=O)Cc2cc(cc(c2)Cl)CNC(=O)C

> <OPENEYE_INCHI>
InChI=1S/C17H18ClN3O2/c1-11-3-4-19-10-16(11)21-17(23)8-13-5-14(7-15(18)6-13)9-20-12(2)22/h3-7,10H,8-9H2,1-2H3,(H,20,22)(H,21,23)

> <OPENEYE_INCHIKEY>
XDVRTJWPDGZLAS-UHFFFAOYSA-N

> <FORMULA>
C17H18ClN3O2

$$$$
