OI4
  -OEChem-05102419323D

 36 38  0     1  0  0  0  0  0999 V2000
   -1.3210   -0.3920   -0.6520 N   0  0  0  0  0  0  0  0  0  0  0  0
   -2.8740   -0.5670    1.1970 C   0  0  0  0  0  0  0  0  0  0  0  0
   -2.5960   -0.1930   -0.1110 C   0  0  0  0  0  0  0  0  0  0  0  0
   -0.4800   -1.2790   -0.0850 C   0  0  0  0  0  0  0  0  0  0  0  0
    0.8810   -1.5190   -0.6880 C   0  0  2  0  0  0  0  0  0  0  0  0
    1.4180   -2.8700   -0.2110 C   0  0  0  0  0  0  0  0  0  0  0  0
    3.1210   -0.6910    0.1220 C   0  0  0  0  0  0  0  0  0  0  0  0
    2.1920    1.9200    0.1260 C   0  0  0  0  0  0  0  0  0  0  0  0
    1.8190   -0.4190   -0.2610 C   0  0  0  0  0  0  0  0  0  0  0  0
    1.6050    3.5540    0.1290 Cl  0  0  0  0  0  0  0  0  0  0  0  0
    3.4950    1.6510    0.5070 C   0  0  0  0  0  0  0  0  0  0  0  0
    3.9590    0.3520    0.5060 C   0  0  0  0  0  0  0  0  0  0  0  0
    1.3580    0.8870   -0.2570 C   0  0  0  0  0  0  0  0  0  0  0  0
    3.6130   -1.9570    0.1400 O   0  0  0  0  0  0  0  0  0  0  0  0
    2.9020   -2.9590   -0.5890 C   0  0  0  0  0  0  0  0  0  0  0  0
   -0.8180   -1.8850    0.9100 O   0  0  0  0  0  0  0  0  0  0  0  0
   -3.6070    0.3840   -0.8770 C   0  0  0  0  0  0  0  0  0  0  0  0
   -3.3510    0.8050   -2.3010 C   0  0  0  0  0  0  0  0  0  0  0  0
   -4.0750   -0.3860    1.7080 N   0  0  0  0  0  0  0  0  0  0  0  0
   -5.0540    0.1530    1.0080 C   0  0  0  0  0  0  0  0  0  0  0  0
   -4.8520    0.5610   -0.2980 C   0  0  0  0  0  0  0  0  0  0  0  0
   -1.0440    0.1070   -1.4360 H   0  0  0  0  0  0  0  0  0  0  0  0
   -2.0980   -1.0160    1.8000 H   0  0  0  0  0  0  0  0  0  0  0  0
    0.8000   -1.5250   -1.7750 H   0  0  0  0  0  0  0  0  0  0  0  0
    1.3090   -2.9480    0.8710 H   0  0  0  0  0  0  0  0  0  0  0  0
    0.8670   -3.6770   -0.6940 H   0  0  0  0  0  0  0  0  0  0  0  0
    4.1480    2.4580    0.8040 H   0  0  0  0  0  0  0  0  0  0  0  0
    4.9750    0.1430    0.8040 H   0  0  0  0  0  0  0  0  0  0  0  0
    0.3410    1.0980   -0.5540 H   0  0  0  0  0  0  0  0  0  0  0  0
    3.2890   -3.9450   -0.3300 H   0  0  0  0  0  0  0  0  0  0  0  0
    3.0190   -2.7880   -1.6590 H   0  0  0  0  0  0  0  0  0  0  0  0
   -3.5730   -0.0250   -2.9720 H   0  0  0  0  0  0  0  0  0  0  0  0
   -3.9880    1.6540   -2.5500 H   0  0  0  0  0  0  0  0  0  0  0  0
   -2.3050    1.0920   -2.4130 H   0  0  0  0  0  0  0  0  0  0  0  0
   -6.0240    0.2840    1.4630 H   0  0  0  0  0  0  0  0  0  0  0  0
   -5.6600    1.0010   -0.8640 H   0  0  0  0  0  0  0  0  0  0  0  0
 19 20  2  0  0  0  0
  2 19  1  0  0  0  0
 20 21  1  0  0  0  0
  2  3  2  0  0  0  0
 17 21  2  0  0  0  0
  3 17  1  0  0  0  0
  1  3  1  0  0  0  0
 17 18  1  0  0  0  0
  8 10  1  0  0  0  0
  1  4  1  0  0  0  0
  4 16  2  0  0  0  0
  4  5  1  0  0  0  0
  8 13  2  0  0  0  0
  9 13  1  0  0  0  0
  8 11  1  0  0  0  0
  5  9  1  0  0  0  0
  5  6  1  0  0  0  0
  7  9  2  0  0  0  0
 11 12  2  0  0  0  0
  7 12  1  0  0  0  0
  7 14  1  0  0  0  0
  6 15  1  0  0  0  0
 14 15  1  0  0  0  0
  1 22  1  0  0  0  0
  2 23  1  0  0  0  0
  5 24  1  0  0  0  0
  6 25  1  0  0  0  0
  6 26  1  0  0  0  0
 11 27  1  0  0  0  0
 12 28  1  0  0  0  0
 13 29  1  0  0  0  0
 15 30  1  0  0  0  0
 15 31  1  0  0  0  0
 18 32  1  0  0  0  0
 18 33  1  0  0  0  0
 18 34  1  0  0  0  0
 20 35  1  0  0  0  0
 21 36  1  0  0  0  0
M  END
> <OPENEYE_ISO_SMILES>
Cc1ccncc1NC(=O)[C@@H]2CCOc3c2cc(cc3)Cl

> <OPENEYE_INCHI>
InChI=1S/C16H15ClN2O2/c1-10-4-6-18-9-14(10)19-16(20)12-5-7-21-15-3-2-11(17)8-13(12)15/h2-4,6,8-9,12H,5,7H2,1H3,(H,19,20)/t12-/m1/s1

> <OPENEYE_INCHIKEY>
KJMNRTLNVIILOB-GFCCVEGCSA-N

> <FORMULA>
C16H15ClN2O2

$$$$
