OIE
  -OEChem-05102419323D

 33 35  0     0  0  0  0  0  0999 V2000
    1.1240   -0.2000    1.0260 N   0  0  0  0  0  0  0  0  0  0  0  0
   -1.3040   -0.5660    1.3230 C   0  0  0  0  0  0  0  0  0  0  0  0
   -0.1350    0.1410    0.6870 C   0  0  0  0  0  0  0  0  0  0  0  0
    2.2080    0.3930    0.3740 C   0  0  0  0  0  0  0  0  0  0  0  0
    2.1490    1.7070   -0.0390 C   0  0  0  0  0  0  0  0  0  0  0  0
    4.2910    1.6610   -0.9200 C   0  0  0  0  0  0  0  0  0  0  0  0
    5.6420   -0.3860   -0.8020 C   0  0  0  0  0  0  0  0  0  0  0  0
    3.5390   -1.6730    0.5200 C   0  0  0  0  0  0  0  0  0  0  0  0
   -3.5190   -0.8490    0.2050 C   0  0  0  0  0  0  0  0  0  0  0  0
   -0.3270    1.0170   -0.1290 O   0  0  0  0  0  0  0  0  0  0  0  0
   -2.5900   -0.0020    0.7770 C   0  0  0  0  0  0  0  0  0  0  0  0
   -2.8150    1.2960    0.8520 N   0  0  0  0  0  0  0  0  0  0  0  0
   -3.9260    1.8350    0.3870 C   0  0  0  0  0  0  0  0  0  0  0  0
   -4.9010    1.0520   -0.1980 C   0  0  0  0  0  0  0  0  0  0  0  0
   -4.7000   -0.3190   -0.2950 C   0  0  0  0  0  0  0  0  0  0  0  0
   -5.8970   -1.3440   -1.0230 Cl  0  0  0  0  0  0  0  0  0  0  0  0
    3.3920   -0.3370    0.1290 C   0  0  0  0  0  0  0  0  0  0  0  0
    4.7060   -2.3250    0.2550 C   0  0  0  0  0  0  0  0  0  0  0  0
    5.7510   -1.6850   -0.4070 C   0  0  0  0  0  0  0  0  0  0  0  0
    4.4590    0.3200   -0.5370 C   0  0  0  0  0  0  0  0  0  0  0  0
    3.1690    2.2880   -0.6550 N   0  0  0  0  0  0  0  0  0  0  0  0
    1.2780   -0.8550    1.7240 H   0  0  0  0  0  0  0  0  0  0  0  0
   -1.2500   -1.6310    1.0980 H   0  0  0  0  0  0  0  0  0  0  0  0
   -1.2730   -0.4210    2.4030 H   0  0  0  0  0  0  0  0  0  0  0  0
    1.2490    2.2770    0.1420 H   0  0  0  0  0  0  0  0  0  0  0  0
    5.0870    2.1780   -1.4350 H   0  0  0  0  0  0  0  0  0  0  0  0
    6.4610    0.0970   -1.3140 H   0  0  0  0  0  0  0  0  0  0  0  0
    2.7370   -2.1810    1.0340 H   0  0  0  0  0  0  0  0  0  0  0  0
   -3.3270   -1.9100    0.1430 H   0  0  0  0  0  0  0  0  0  0  0  0
   -4.0750    2.9020    0.4670 H   0  0  0  0  0  0  0  0  0  0  0  0
   -5.8080    1.4990   -0.5760 H   0  0  0  0  0  0  0  0  0  0  0  0
    4.8230   -3.3540    0.5640 H   0  0  0  0  0  0  0  0  0  0  0  0
    6.6620   -2.2280   -0.6110 H   0  0  0  0  0  0  0  0  0  0  0  0
  6 21  2  0  0  0  0
  5 21  1  0  0  0  0
  6 20  1  0  0  0  0
  4  5  2  0  0  0  0
  7 20  2  0  0  0  0
 17 20  1  0  0  0  0
  7 19  1  0  0  0  0
  4 17  1  0  0  0  0
  1  4  1  0  0  0  0
  8 17  2  0  0  0  0
 18 19  2  0  0  0  0
  1  3  1  0  0  0  0
  3 10  2  0  0  0  0
 15 16  1  0  0  0  0
  2  3  1  0  0  0  0
  8 18  1  0  0  0  0
  9 15  2  0  0  0  0
  9 11  1  0  0  0  0
 14 15  1  0  0  0  0
  2 11  1  0  0  0  0
 11 12  2  0  0  0  0
 13 14  2  0  0  0  0
 12 13  1  0  0  0  0
  1 22  1  0  0  0  0
  2 23  1  0  0  0  0
  2 24  1  0  0  0  0
  5 25  1  0  0  0  0
  6 26  1  0  0  0  0
  7 27  1  0  0  0  0
  8 28  1  0  0  0  0
  9 29  1  0  0  0  0
 13 30  1  0  0  0  0
 14 31  1  0  0  0  0
 18 32  1  0  0  0  0
 19 33  1  0  0  0  0
M  END
> <OPENEYE_ISO_SMILES>
c1ccc2c(c1)cncc2NC(=O)Cc3cc(ccn3)Cl

> <OPENEYE_INCHI>
InChI=1S/C16H12ClN3O/c17-12-5-6-19-13(7-12)8-16(21)20-15-10-18-9-11-3-1-2-4-14(11)15/h1-7,9-10H,8H2,(H,20,21)

> <OPENEYE_INCHIKEY>
WBAYRCXMIZFJCT-UHFFFAOYSA-N

> <FORMULA>
C16H12ClN3O

$$$$
