OIK
  -OEChem-05102419323D

 43 46  0     0  0  0  0  0  0999 V2000
   -2.7010    0.6730    0.2520 N   0  0  0  0  0  0  0  0  0  0  0  0
   -1.1040    1.0350    2.0730 C   0  0  0  0  0  0  0  0  0  0  0  0
   -3.8500    0.0050   -0.1780 C   0  0  0  0  0  0  0  0  0  0  0  0
   -4.4370    0.3410   -1.3910 C   0  0  0  0  0  0  0  0  0  0  0  0
   -5.5730   -0.3210   -1.8140 C   0  0  0  0  0  0  0  0  0  0  0  0
   -6.1260   -1.3170   -1.0300 C   0  0  0  0  0  0  0  0  0  0  0  0
   -4.4050   -1.0000    0.6040 C   0  0  0  0  0  0  0  0  0  0  0  0
    4.1090    0.8750   -1.7860 C   0  0  0  0  0  0  0  0  0  0  0  0
    4.9330   -1.3620   -1.1920 C   0  0  0  0  0  0  0  0  0  0  0  0
    3.8970   -2.5200    0.6370 C   0  0  0  0  0  0  0  0  0  0  0  0
    1.5490    0.5950    2.4800 O   0  0  0  0  0  0  0  0  0  0  0  0
    1.2250    0.8290    1.3320 C   0  0  0  0  0  0  0  0  0  0  0  0
    2.2390    0.8140    0.2620 C   0  0  0  0  0  0  0  0  0  0  0  0
    3.1170   -0.3400    0.0670 C   0  0  0  0  0  0  0  0  0  0  0  0
    3.0480   -1.4780    0.8730 C   0  0  0  0  0  0  0  0  0  0  0  0
    4.8460   -2.4540   -0.3810 C   0  0  0  0  0  0  0  0  0  0  0  0
    4.0670   -0.2770   -0.9850 C   0  0  0  0  0  0  0  0  0  0  0  0
    3.2920    1.8780   -1.5680 N   0  0  0  0  0  0  0  0  0  0  0  0
    2.3870    1.8900   -0.6040 C   0  0  0  0  0  0  0  0  0  0  0  0
   -0.0620    1.1020    1.0370 N   0  0  0  0  0  0  0  0  0  0  0  0
   -2.2510    0.1620    1.5540 C   0  0  0  0  0  0  0  0  0  0  0  0
   -1.6330    0.5840   -0.7530 C   0  0  0  0  0  0  0  0  0  0  0  0
   -0.4610    1.4740   -0.3280 C   0  0  0  0  0  0  0  0  0  0  0  0
   -5.5440   -1.6540    0.1780 C   0  0  0  0  0  0  0  0  0  0  0  0
   -0.6910    0.5950    2.9800 H   0  0  0  0  0  0  0  0  0  0  0  0
   -1.4750    2.0370    2.2880 H   0  0  0  0  0  0  0  0  0  0  0  0
   -4.0060    1.1200   -2.0030 H   0  0  0  0  0  0  0  0  0  0  0  0
   -6.0300   -0.0600   -2.7570 H   0  0  0  0  0  0  0  0  0  0  0  0
   -7.0150   -1.8330   -1.3620 H   0  0  0  0  0  0  0  0  0  0  0  0
   -3.9510   -1.2630    1.5480 H   0  0  0  0  0  0  0  0  0  0  0  0
    4.8260    0.9390   -2.5910 H   0  0  0  0  0  0  0  0  0  0  0  0
    5.6630   -1.3320   -1.9870 H   0  0  0  0  0  0  0  0  0  0  0  0
    3.8450   -3.4010    1.2590 H   0  0  0  0  0  0  0  0  0  0  0  0
    2.3270   -1.5340    1.6750 H   0  0  0  0  0  0  0  0  0  0  0  0
    5.5120   -3.2890   -0.5400 H   0  0  0  0  0  0  0  0  0  0  0  0
    1.7490    2.7540   -0.4870 H   0  0  0  0  0  0  0  0  0  0  0  0
   -3.0790    0.1910    2.2610 H   0  0  0  0  0  0  0  0  0  0  0  0
   -1.9040   -0.8650    1.4410 H   0  0  0  0  0  0  0  0  0  0  0  0
   -1.2940   -0.4490   -0.8340 H   0  0  0  0  0  0  0  0  0  0  0  0
   -2.0130    0.9180   -1.7180 H   0  0  0  0  0  0  0  0  0  0  0  0
   -0.7690    2.5200   -0.3470 H   0  0  0  0  0  0  0  0  0  0  0  0
    0.3780    1.3250   -1.0080 H   0  0  0  0  0  0  0  0  0  0  0  0
   -5.9760   -2.4350    0.7860 H   0  0  0  0  0  0  0  0  0  0  0  0
  8 18  2  0  0  0  0
 18 19  1  0  0  0  0
  8 17  1  0  0  0  0
 13 19  2  0  0  0  0
  9 17  2  0  0  0  0
 14 17  1  0  0  0  0
  9 16  1  0  0  0  0
 13 14  1  0  0  0  0
 12 13  1  0  0  0  0
 14 15  2  0  0  0  0
 10 16  2  0  0  0  0
 11 12  2  0  0  0  0
 12 20  1  0  0  0  0
 10 15  1  0  0  0  0
  2 20  1  0  0  0  0
 20 23  1  0  0  0  0
  2 21  1  0  0  0  0
  1 21  1  0  0  0  0
  7 24  2  0  0  0  0
  3  7  1  0  0  0  0
 22 23  1  0  0  0  0
  1 22  1  0  0  0  0
  1  3  1  0  0  0  0
  6 24  1  0  0  0  0
  3  4  2  0  0  0  0
  5  6  2  0  0  0  0
  4  5  1  0  0  0  0
  2 25  1  0  0  0  0
  2 26  1  0  0  0  0
  4 27  1  0  0  0  0
  5 28  1  0  0  0  0
  6 29  1  0  0  0  0
  7 30  1  0  0  0  0
  8 31  1  0  0  0  0
  9 32  1  0  0  0  0
 10 33  1  0  0  0  0
 15 34  1  0  0  0  0
 16 35  1  0  0  0  0
 19 36  1  0  0  0  0
 21 37  1  0  0  0  0
 21 38  1  0  0  0  0
 22 39  1  0  0  0  0
 22 40  1  0  0  0  0
 23 41  1  0  0  0  0
 23 42  1  0  0  0  0
 24 43  1  0  0  0  0
M  END
> <OPENEYE_ISO_SMILES>
c1ccc(cc1)N2CCN(CC2)C(=O)c3cncc4c3cccc4

> <OPENEYE_INCHI>
InChI=1S/C20H19N3O/c24-20(19-15-21-14-16-6-4-5-9-18(16)19)23-12-10-22(11-13-23)17-7-2-1-3-8-17/h1-9,14-15H,10-13H2

> <OPENEYE_INCHIKEY>
UIQBSVLMOPGDAQ-UHFFFAOYSA-N

> <FORMULA>
C20H19N3O

$$$$
