OIX
  -OEChem-05102419323D

 42 44  0     0  0  0  0  0  0999 V2000
   -2.7350   -2.0250    1.4890 N   0  0  0  0  0  0  0  0  0  0  0  0
    5.8340    0.7870    1.3380 C   0  0  0  0  0  0  0  0  0  0  0  0
    4.5520    1.1610    0.9820 C   0  0  0  0  0  0  0  0  0  0  0  0
    3.8390    0.4050    0.0640 C   0  0  0  0  0  0  0  0  0  0  0  0
    2.0480    1.9480    0.3290 C   0  0  0  0  0  0  0  0  0  0  0  0
    0.6300    2.2000   -0.1860 C   0  0  0  0  0  0  0  0  0  0  0  0
   -2.4340    0.0180    0.3380 C   0  0  0  0  0  0  0  0  0  0  0  0
   -4.6350   -1.0900    0.4390 C   0  0  0  0  0  0  0  0  0  0  0  0
   -6.5480   -0.1340   -0.6270 C   0  0  0  0  0  0  0  0  0  0  0  0
   -4.4460    1.0130   -0.7750 C   0  0  0  0  0  0  0  0  0  0  0  0
   -2.0000    2.0310   -0.7600 O   0  0  0  0  0  0  0  0  0  0  0  0
   -1.5510    1.1170   -0.0950 C   0  0  0  0  0  0  0  0  0  0  0  0
   -3.8530    0.0020   -0.0160 C   0  0  0  0  0  0  0  0  0  0  0  0
   -5.7760    0.9360   -1.0720 C   0  0  0  0  0  0  0  0  0  0  0  0
   -6.0000   -1.1370    0.1160 C   0  0  0  0  0  0  0  0  0  0  0  0
   -4.0130   -2.0920    1.2010 C   0  0  0  0  0  0  0  0  0  0  0  0
   -1.9470   -1.0380    1.0980 C   0  0  0  0  0  0  0  0  0  0  0  0
   -0.2470    1.1080    0.2450 N   0  0  0  0  0  0  0  0  0  0  0  0
    2.5780    0.7720   -0.2870 O   0  0  0  0  0  0  0  0  0  0  0  0
    4.4170   -0.7290   -0.4970 C   0  0  0  0  0  0  0  0  0  0  0  0
    3.7220   -1.4730   -1.3990 O   0  0  0  0  0  0  0  0  0  0  0  0
    4.3790   -2.6240   -1.9340 C   0  0  0  0  0  0  0  0  0  0  0  0
    6.4090   -0.3400    0.7800 C   0  0  0  0  0  0  0  0  0  0  0  0
    5.7030   -1.0980   -0.1360 C   0  0  0  0  0  0  0  0  0  0  0  0
    6.3900    1.3780    2.0500 H   0  0  0  0  0  0  0  0  0  0  0  0
    4.1050    2.0410    1.4200 H   0  0  0  0  0  0  0  0  0  0  0  0
    2.6800    2.8020    0.0850 H   0  0  0  0  0  0  0  0  0  0  0  0
    2.0230    1.8120    1.4100 H   0  0  0  0  0  0  0  0  0  0  0  0
    0.2600    3.1430    0.2150 H   0  0  0  0  0  0  0  0  0  0  0  0
    0.6420    2.2480   -1.2750 H   0  0  0  0  0  0  0  0  0  0  0  0
   -7.5980   -0.1710   -0.8760 H   0  0  0  0  0  0  0  0  0  0  0  0
   -3.8580    1.8480   -1.1250 H   0  0  0  0  0  0  0  0  0  0  0  0
   -6.2360    1.7160   -1.6610 H   0  0  0  0  0  0  0  0  0  0  0  0
   -6.6120   -1.9600    0.4530 H   0  0  0  0  0  0  0  0  0  0  0  0
   -4.5950   -2.9300    1.5550 H   0  0  0  0  0  0  0  0  0  0  0  0
   -0.9030   -1.0530    1.3760 H   0  0  0  0  0  0  0  0  0  0  0  0
    0.1110    0.3790    0.7750 H   0  0  0  0  0  0  0  0  0  0  0  0
    5.2900   -2.3160   -2.4480 H   0  0  0  0  0  0  0  0  0  0  0  0
    4.6330   -3.3070   -1.1230 H   0  0  0  0  0  0  0  0  0  0  0  0
    3.7160   -3.1260   -2.6380 H   0  0  0  0  0  0  0  0  0  0  0  0
    7.4120   -0.6270    1.0570 H   0  0  0  0  0  0  0  0  0  0  0  0
    6.1540   -1.9780   -0.5710 H   0  0  0  0  0  0  0  0  0  0  0  0
  1 16  2  0  0  0  0
  1 17  1  0  0  0  0
  8 16  1  0  0  0  0
  7 17  2  0  0  0  0
  8 15  2  0  0  0  0
  8 13  1  0  0  0  0
  9 15  1  0  0  0  0
  7 13  1  0  0  0  0
  7 12  1  0  0  0  0
 10 13  2  0  0  0  0
 11 12  2  0  0  0  0
 12 18  1  0  0  0  0
  9 14  2  0  0  0  0
  6 18  1  0  0  0  0
 10 14  1  0  0  0  0
  2  3  2  0  0  0  0
  3  4  1  0  0  0  0
  2 23  1  0  0  0  0
  5  6  1  0  0  0  0
  4 19  1  0  0  0  0
  5 19  1  0  0  0  0
  4 20  2  0  0  0  0
 23 24  2  0  0  0  0
 20 24  1  0  0  0  0
 20 21  1  0  0  0  0
 21 22  1  0  0  0  0
  2 25  1  0  0  0  0
  3 26  1  0  0  0  0
  5 27  1  0  0  0  0
  5 28  1  0  0  0  0
  6 29  1  0  0  0  0
  6 30  1  0  0  0  0
  9 31  1  0  0  0  0
 10 32  1  0  0  0  0
 14 33  1  0  0  0  0
 15 34  1  0  0  0  0
 16 35  1  0  0  0  0
 17 36  1  0  0  0  0
 18 37  1  0  0  0  0
 22 38  1  0  0  0  0
 22 39  1  0  0  0  0
 22 40  1  0  0  0  0
 23 41  1  0  0  0  0
 24 42  1  0  0  0  0
M  END
> <OPENEYE_ISO_SMILES>
COc1ccccc1OCCNC(=O)c2cncc3c2cccc3

> <OPENEYE_INCHI>
InChI=1S/C19H18N2O3/c1-23-17-8-4-5-9-18(17)24-11-10-21-19(22)16-13-20-12-14-6-2-3-7-15(14)16/h2-9,12-13H,10-11H2,1H3,(H,21,22)

> <OPENEYE_INCHIKEY>
SWRAJWUUCVFLBR-UHFFFAOYSA-N

> <FORMULA>
C19H18N2O3

$$$$
