OKW
  -OEChem-05102419323D

 35 37  0     0  0  0  0  0  0999 V2000
   -2.9560   -2.3060   -0.6660 N   0  0  0  0  0  0  0  0  0  0  0  0
    2.3660    1.0590    0.1940 C   0  0  0  0  0  0  0  0  0  0  0  0
    1.0750    1.3310    0.9220 C   0  0  0  0  0  0  0  0  0  0  0  0
   -0.0010    0.4180    0.3940 C   0  0  0  0  0  0  0  0  0  0  0  0
   -2.2690   -0.3000    0.3500 C   0  0  0  0  0  0  0  0  0  0  0  0
   -1.9960   -1.5670   -0.1470 C   0  0  0  0  0  0  0  0  0  0  0  0
   -4.5530   -0.6280   -0.2610 C   0  0  0  0  0  0  0  0  0  0  0  0
   -4.1820    1.4890    0.7380 C   0  0  0  0  0  0  0  0  0  0  0  0
    3.2470    0.1110    0.6820 C   0  0  0  0  0  0  0  0  0  0  0  0
    0.2550   -0.3770   -0.4850 O   0  0  0  0  0  0  0  0  0  0  0  0
    2.6670    1.7520   -0.9630 C   0  0  0  0  0  0  0  0  0  0  0  0
    3.8520    1.5010   -1.6320 C   0  0  0  0  0  0  0  0  0  0  0  0
    4.7350    0.5580   -1.1430 C   0  0  0  0  0  0  0  0  0  0  0  0
    4.4300   -0.1440    0.0110 C   0  0  0  0  0  0  0  0  0  0  0  0
    5.5360   -1.3330    0.6220 Cl  0  0  0  0  0  0  0  0  0  0  0  0
   -1.2480    0.4840    0.9010 N   0  0  0  0  0  0  0  0  0  0  0  0
   -3.5750    0.1800    0.2920 C   0  0  0  0  0  0  0  0  0  0  0  0
   -5.5420    1.5720    0.0110 C   0  0  0  0  0  0  0  0  0  0  0  0
   -5.8850    0.0850   -0.2220 C   0  0  0  0  0  0  0  0  0  0  0  0
   -4.2020   -1.8800   -0.7360 C   0  0  0  0  0  0  0  0  0  0  0  0
    1.2140    1.1520    1.9880 H   0  0  0  0  0  0  0  0  0  0  0  0
    0.7810    2.3690    0.7630 H   0  0  0  0  0  0  0  0  0  0  0  0
   -0.9870   -1.9510   -0.1080 H   0  0  0  0  0  0  0  0  0  0  0  0
   -4.3300    1.4890    1.8180 H   0  0  0  0  0  0  0  0  0  0  0  0
   -3.5430    2.3220    0.4450 H   0  0  0  0  0  0  0  0  0  0  0  0
    3.0120   -0.4300    1.5860 H   0  0  0  0  0  0  0  0  0  0  0  0
    1.9770    2.4890   -1.3460 H   0  0  0  0  0  0  0  0  0  0  0  0
    4.0860    2.0430   -2.5360 H   0  0  0  0  0  0  0  0  0  0  0  0
    5.6600    0.3610   -1.6650 H   0  0  0  0  0  0  0  0  0  0  0  0
   -1.4390    1.0740    1.6470 H   0  0  0  0  0  0  0  0  0  0  0  0
   -6.2910    2.0480    0.6440 H   0  0  0  0  0  0  0  0  0  0  0  0
   -5.4430    2.1040   -0.9350 H   0  0  0  0  0  0  0  0  0  0  0  0
   -6.4080   -0.0370   -1.1710 H   0  0  0  0  0  0  0  0  0  0  0  0
   -6.4940   -0.2960    0.5970 H   0  0  0  0  0  0  0  0  0  0  0  0
   -4.9590   -2.5160   -1.1690 H   0  0  0  0  0  0  0  0  0  0  0  0
  1 20  2  0  0  0  0
  1  6  1  0  0  0  0
  7 20  1  0  0  0  0
  5  6  2  0  0  0  0
  7 19  1  0  0  0  0
  7 17  2  0  0  0  0
 18 19  1  0  0  0  0
  5 17  1  0  0  0  0
  5 16  1  0  0  0  0
  8 17  1  0  0  0  0
  4 16  1  0  0  0  0
 14 15  1  0  0  0  0
  4 10  2  0  0  0  0
  8 18  1  0  0  0  0
  3  4  1  0  0  0  0
  9 14  2  0  0  0  0
  2  9  1  0  0  0  0
 13 14  1  0  0  0  0
  2  3  1  0  0  0  0
  2 11  2  0  0  0  0
 12 13  2  0  0  0  0
 11 12  1  0  0  0  0
  3 21  1  0  0  0  0
  3 22  1  0  0  0  0
  6 23  1  0  0  0  0
  8 24  1  0  0  0  0
  8 25  1  0  0  0  0
  9 26  1  0  0  0  0
 11 27  1  0  0  0  0
 12 28  1  0  0  0  0
 13 29  1  0  0  0  0
 16 30  1  0  0  0  0
 18 31  1  0  0  0  0
 18 32  1  0  0  0  0
 19 33  1  0  0  0  0
 19 34  1  0  0  0  0
 20 35  1  0  0  0  0
M  END
> <OPENEYE_ISO_SMILES>
c1cc(cc(c1)Cl)CC(=O)Nc2cncc3c2CCC3

> <OPENEYE_INCHI>
InChI=1S/C16H15ClN2O/c17-13-5-1-3-11(7-13)8-16(20)19-15-10-18-9-12-4-2-6-14(12)15/h1,3,5,7,9-10H,2,4,6,8H2,(H,19,20)

> <OPENEYE_INCHIKEY>
NJHYHXQHRGWKMO-UHFFFAOYSA-N

> <FORMULA>
C16H15ClN2O

$$$$
