ONU
  -OEChem-05102419323D

 45 48  0     0  0  0  0  0  0999 V2000
    0.3930   -1.0700   -1.1500 N   0  0  0  0  0  0  0  0  0  0  0  0
   -4.1790    2.5840    0.7010 C   0  0  0  0  0  0  0  0  0  0  0  0
   -3.3180    1.6400    0.1730 C   0  0  0  0  0  0  0  0  0  0  0  0
   -3.7510    0.3350   -0.0150 C   0  0  0  0  0  0  0  0  0  0  0  0
   -1.5110   -0.2480   -0.9090 C   0  0  0  0  0  0  0  0  0  0  0  0
   -0.8490   -1.1870   -1.9270 C   0  0  0  0  0  0  0  0  0  0  0  0
    1.7130   -1.1590   -1.4100 C   0  0  0  0  0  0  0  0  0  0  0  0
    3.9610   -1.4650    1.6590 C   0  0  0  0  0  0  0  0  0  0  0  0
    4.9870    1.9110    0.7550 C   0  0  0  0  0  0  0  0  0  0  0  0
    3.8000    2.6060   -1.2150 C   0  0  0  0  0  0  0  0  0  0  0  0
    4.2110   -2.2860    2.5230 O   0  0  0  0  0  0  0  0  0  0  0  0
    2.9830   -1.7860    0.6220 C   0  0  0  0  0  0  0  0  0  0  0  0
    4.5870   -0.2750    1.6760 N   0  0  0  0  0  0  0  0  0  0  0  0
    4.3290    0.6840    0.7200 C   0  0  0  0  0  0  0  0  0  0  0  0
    3.3970    0.4320   -0.3030 C   0  0  0  0  0  0  0  0  0  0  0  0
    3.1420    1.4100   -1.2690 C   0  0  0  0  0  0  0  0  0  0  0  0
    4.7210    2.8600   -0.2070 C   0  0  0  0  0  0  0  0  0  0  0  0
    2.7000   -0.8630   -0.3440 C   0  0  0  0  0  0  0  0  0  0  0  0
    2.0930   -1.4830   -2.5170 O   0  0  0  0  0  0  0  0  0  0  0  0
   -0.4370   -0.8060    0.0350 C   0  0  0  0  0  0  0  0  0  0  0  0
   -2.8810   -0.6230   -0.5490 N   0  0  0  0  0  0  0  0  0  0  0  0
   -5.0530   -0.0190    0.3290 C   0  0  0  0  0  0  0  0  0  0  0  0
   -5.4830   -1.2960    0.1470 O   0  0  0  0  0  0  0  0  0  0  0  0
   -6.8310   -1.5870    0.5220 C   0  0  0  0  0  0  0  0  0  0  0  0
   -5.4710    2.2320    1.0420 C   0  0  0  0  0  0  0  0  0  0  0  0
   -5.9100    0.9330    0.8570 C   0  0  0  0  0  0  0  0  0  0  0  0
   -3.8390    3.5980    0.8510 H   0  0  0  0  0  0  0  0  0  0  0  0
   -2.3090    1.9180   -0.0930 H   0  0  0  0  0  0  0  0  0  0  0  0
   -1.4010    0.8110   -1.1410 H   0  0  0  0  0  0  0  0  0  0  0  0
   -0.7770   -0.7610   -2.9280 H   0  0  0  0  0  0  0  0  0  0  0  0
   -1.2690   -2.1930   -1.9260 H   0  0  0  0  0  0  0  0  0  0  0  0
    5.7050    2.1170    1.5350 H   0  0  0  0  0  0  0  0  0  0  0  0
    3.6020    3.3600   -1.9620 H   0  0  0  0  0  0  0  0  0  0  0  0
    2.4890   -2.7460    0.6190 H   0  0  0  0  0  0  0  0  0  0  0  0
    5.2310   -0.0870    2.3760 H   0  0  0  0  0  0  0  0  0  0  0  0
    2.4280    1.2200   -2.0560 H   0  0  0  0  0  0  0  0  0  0  0  0
    5.2320    3.8100   -0.1780 H   0  0  0  0  0  0  0  0  0  0  0  0
   -0.7470   -1.7110    0.5580 H   0  0  0  0  0  0  0  0  0  0  0  0
   -0.0140   -0.0560    0.7030 H   0  0  0  0  0  0  0  0  0  0  0  0
   -3.1850   -1.5340   -0.6800 H   0  0  0  0  0  0  0  0  0  0  0  0
   -7.0440   -2.6380    0.3260 H   0  0  0  0  0  0  0  0  0  0  0  0
   -6.9650   -1.3810    1.5840 H   0  0  0  0  0  0  0  0  0  0  0  0
   -7.5120   -0.9630   -0.0570 H   0  0  0  0  0  0  0  0  0  0  0  0
   -6.1390    2.9720    1.4580 H   0  0  0  0  0  0  0  0  0  0  0  0
   -6.9200    0.6620    1.1240 H   0  0  0  0  0  0  0  0  0  0  0  0
  8 11  2  0  0  0  0
  8 13  1  0  0  0  0
  8 12  1  0  0  0  0
 13 14  1  0  0  0  0
 12 18  2  0  0  0  0
  9 14  2  0  0  0  0
 14 15  1  0  0  0  0
 15 18  1  0  0  0  0
  7 18  1  0  0  0  0
  9 17  1  0  0  0  0
 15 16  2  0  0  0  0
  7 19  2  0  0  0  0
  1  7  1  0  0  0  0
  1  6  1  0  0  0  0
  1 20  1  0  0  0  0
  5  6  1  0  0  0  0
 10 17  2  0  0  0  0
 10 16  1  0  0  0  0
  5 20  1  0  0  0  0
  5 21  1  0  0  0  0
  2  3  2  0  0  0  0
  3  4  1  0  0  0  0
  2 25  1  0  0  0  0
  4 21  1  0  0  0  0
  4 22  2  0  0  0  0
 25 26  2  0  0  0  0
 22 26  1  0  0  0  0
 22 23  1  0  0  0  0
 23 24  1  0  0  0  0
  2 27  1  0  0  0  0
  3 28  1  0  0  0  0
  5 29  1  0  0  0  0
  6 30  1  0  0  0  0
  6 31  1  0  0  0  0
  9 32  1  0  0  0  0
 10 33  1  0  0  0  0
 12 34  1  0  0  0  0
 13 35  1  0  0  0  0
 16 36  1  0  0  0  0
 17 37  1  0  0  0  0
 20 38  1  0  0  0  0
 20 39  1  0  0  0  0
 21 40  1  0  0  0  0
 24 41  1  0  0  0  0
 24 42  1  0  0  0  0
 24 43  1  0  0  0  0
 25 44  1  0  0  0  0
 26 45  1  0  0  0  0
M  END
> <OPENEYE_ISO_SMILES>
COc1ccccc1NC2CN(C2)C(=O)c3cc(=O)[nH]c4c3cccc4

> <OPENEYE_INCHI>
InChI=1S/C20H19N3O3/c1-26-18-9-5-4-8-17(18)21-13-11-23(12-13)20(25)15-10-19(24)22-16-7-3-2-6-14(15)16/h2-10,13,21H,11-12H2,1H3,(H,22,24)

> <OPENEYE_INCHIKEY>
DFIJRDVINKLDBU-UHFFFAOYSA-N

> <FORMULA>
C20H19N3O3

$$$$
