OGV
  -OEChem-05102419323D

 31 33  0     0  0  0  0  0  0999 V2000
    2.0440    0.8810   -1.0010 N   0  0  0  0  0  0  0  0  0  0  0  0
    3.5270   -0.0980    0.2200 N   0  0  0  0  0  0  0  0  0  0  0  0
   -2.5160   -1.0540    0.1680 C   0  0  0  0  0  0  0  0  0  0  0  0
   -1.1890   -1.4360    0.7690 C   0  0  0  0  0  0  0  0  0  0  0  0
   -0.0950   -0.6170    0.1340 C   0  0  0  0  0  0  0  0  0  0  0  0
    2.1970   -0.0300   -0.0680 C   0  0  0  0  0  0  0  0  0  0  0  0
    4.1360    0.8270   -0.5990 C   0  0  0  0  0  0  0  0  0  0  0  0
    6.2580    0.2440    0.3320 C   0  0  0  0  0  0  0  0  0  0  0  0
   -3.2630   -0.0360    0.7310 C   0  0  0  0  0  0  0  0  0  0  0  0
   -0.3670    0.1980   -0.7220 O   0  0  0  0  0  0  0  0  0  0  0  0
   -2.9850   -1.7180   -0.9500 C   0  0  0  0  0  0  0  0  0  0  0  0
   -4.2030   -1.3670   -1.5030 C   0  0  0  0  0  0  0  0  0  0  0  0
   -4.9520   -0.3520   -0.9380 C   0  0  0  0  0  0  0  0  0  0  0  0
   -4.4790    0.3190    0.1760 C   0  0  0  0  0  0  0  0  0  0  0  0
   -5.4170    1.5980    0.8820 Cl  0  0  0  0  0  0  0  0  0  0  0  0
    1.1850   -0.7890    0.5180 N   0  0  0  0  0  0  0  0  0  0  0  0
    3.1820    1.3900   -1.3190 N   0  0  0  0  0  0  0  0  0  0  0  0
    4.2690   -0.8470    1.0880 C   0  0  0  0  0  0  0  0  0  0  0  0
    5.6070   -0.6920    1.1560 C   0  0  0  0  0  0  0  0  0  0  0  0
    5.5340    0.9980   -0.5380 C   0  0  0  0  0  0  0  0  0  0  0  0
   -1.2080   -1.2470    1.8430 H   0  0  0  0  0  0  0  0  0  0  0  0
   -1.0000   -2.4950    0.5900 H   0  0  0  0  0  0  0  0  0  0  0  0
    7.3290    0.3650    0.3910 H   0  0  0  0  0  0  0  0  0  0  0  0
   -2.8960    0.4830    1.6050 H   0  0  0  0  0  0  0  0  0  0  0  0
   -2.4000   -2.5100   -1.3920 H   0  0  0  0  0  0  0  0  0  0  0  0
   -4.5690   -1.8850   -2.3770 H   0  0  0  0  0  0  0  0  0  0  0  0
   -5.9030   -0.0780   -1.3700 H   0  0  0  0  0  0  0  0  0  0  0  0
    1.4030   -1.4400    1.2040 H   0  0  0  0  0  0  0  0  0  0  0  0
    3.7800   -1.5690    1.7260 H   0  0  0  0  0  0  0  0  0  0  0  0
    6.1820   -1.2900    1.8470 H   0  0  0  0  0  0  0  0  0  0  0  0
    6.0240    1.7190   -1.1740 H   0  0  0  0  0  0  0  0  0  0  0  0
  1 17  1  0  0  0  0
  7 17  2  0  0  0  0
  7 20  1  0  0  0  0
  8 20  2  0  0  0  0
  1  6  2  0  0  0  0
  2  7  1  0  0  0  0
  8 19  1  0  0  0  0
  2  6  1  0  0  0  0
  6 16  1  0  0  0  0
  2 18  1  0  0  0  0
 18 19  2  0  0  0  0
  5 16  1  0  0  0  0
  5 10  2  0  0  0  0
 14 15  1  0  0  0  0
  4  5  1  0  0  0  0
  9 14  2  0  0  0  0
  3  9  1  0  0  0  0
 13 14  1  0  0  0  0
  3  4  1  0  0  0  0
  3 11  2  0  0  0  0
 12 13  2  0  0  0  0
 11 12  1  0  0  0  0
  4 21  1  0  0  0  0
  4 22  1  0  0  0  0
  8 23  1  0  0  0  0
  9 24  1  0  0  0  0
 11 25  1  0  0  0  0
 12 26  1  0  0  0  0
 13 27  1  0  0  0  0
 16 28  1  0  0  0  0
 18 29  1  0  0  0  0
 19 30  1  0  0  0  0
 20 31  1  0  0  0  0
M  END
> <OPENEYE_ISO_SMILES>
c1ccn2c(c1)nnc2NC(=O)Cc3cccc(c3)Cl

> <OPENEYE_INCHI>
InChI=1S/C14H11ClN4O/c15-11-5-3-4-10(8-11)9-13(20)16-14-18-17-12-6-1-2-7-19(12)14/h1-8H,9H2,(H,16,18,20)

> <OPENEYE_INCHIKEY>
PICHRHZICCXQLR-UHFFFAOYSA-N

> <FORMULA>
C14H11ClN4O

$$$$
