OGO
  -OEChem-05102419323D

 44 47  0     0  0  0  0  0  0999 V2000
    4.9200   -1.1500    0.9040 N   0  0  0  0  0  0  0  0  0  0  0  0
   -4.9490    2.3300   -0.0460 C   0  0  0  0  0  0  0  0  0  0  0  0
   -3.8110    1.5540   -0.1600 C   0  0  0  0  0  0  0  0  0  0  0  0
   -3.8730    0.1920    0.0880 C   0  0  0  0  0  0  0  0  0  0  0  0
   -1.5240    0.1090   -0.2720 C   0  0  0  0  0  0  0  0  0  0  0  0
   -1.0230   -0.0260   -1.7210 C   0  0  0  0  0  0  0  0  0  0  0  0
    1.5780   -0.0280   -1.5730 C   0  0  0  0  0  0  0  0  0  0  0  0
    4.2280   -2.0920    0.2400 C   0  0  0  0  0  0  0  0  0  0  0  0
    5.3120    1.1440    1.5110 C   0  0  0  0  0  0  0  0  0  0  0  0
    3.8990    2.8690    0.6160 C   0  0  0  0  0  0  0  0  0  0  0  0
    4.5530   -3.2610    0.3450 O   0  0  0  0  0  0  0  0  0  0  0  0
    3.0910   -1.7340   -0.6050 C   0  0  0  0  0  0  0  0  0  0  0  0
    4.5850    0.1840    0.8120 C   0  0  0  0  0  0  0  0  0  0  0  0
    3.5040    0.5890    0.0090 C   0  0  0  0  0  0  0  0  0  0  0  0
    3.1710    1.9440   -0.0790 C   0  0  0  0  0  0  0  0  0  0  0  0
    4.9660    2.4740    1.4100 C   0  0  0  0  0  0  0  0  0  0  0  0
    2.7270   -0.4230   -0.7220 C   0  0  0  0  0  0  0  0  0  0  0  0
    1.7720    0.4650   -2.6660 O   0  0  0  0  0  0  0  0  0  0  0  0
    0.3180   -0.2170   -1.1330 N   0  0  0  0  0  0  0  0  0  0  0  0
   -0.2760   -0.6980    0.1300 C   0  0  0  0  0  0  0  0  0  0  0  0
   -2.7550   -0.5730   -0.0230 O   0  0  0  0  0  0  0  0  0  0  0  0
   -5.0840   -0.3910    0.4520 C   0  0  0  0  0  0  0  0  0  0  0  0
   -5.1500   -1.7260    0.6980 O   0  0  0  0  0  0  0  0  0  0  0  0
   -6.4250   -2.2560    1.0670 C   0  0  0  0  0  0  0  0  0  0  0  0
   -6.1510    1.7520    0.3160 C   0  0  0  0  0  0  0  0  0  0  0  0
   -6.2200    0.3940    0.5650 C   0  0  0  0  0  0  0  0  0  0  0  0
    5.6680   -1.4140    1.4610 H   0  0  0  0  0  0  0  0  0  0  0  0
   -4.8970    3.3920   -0.2360 H   0  0  0  0  0  0  0  0  0  0  0  0
   -2.8730    2.0090   -0.4430 H   0  0  0  0  0  0  0  0  0  0  0  0
   -1.5230    1.1330    0.1010 H   0  0  0  0  0  0  0  0  0  0  0  0
   -1.4050   -0.9060   -2.2380 H   0  0  0  0  0  0  0  0  0  0  0  0
   -1.1210    0.8870   -2.3070 H   0  0  0  0  0  0  0  0  0  0  0  0
    6.1440    0.8460    2.1320 H   0  0  0  0  0  0  0  0  0  0  0  0
    3.6410    3.9150    0.5470 H   0  0  0  0  0  0  0  0  0  0  0  0
    2.5430   -2.5000   -1.1330 H   0  0  0  0  0  0  0  0  0  0  0  0
    2.3420    2.2590   -0.6940 H   0  0  0  0  0  0  0  0  0  0  0  0
    5.5310    3.2160    1.9550 H   0  0  0  0  0  0  0  0  0  0  0  0
    0.2230   -0.3190    1.0220 H   0  0  0  0  0  0  0  0  0  0  0  0
   -0.4390   -1.7750    0.1560 H   0  0  0  0  0  0  0  0  0  0  0  0
   -6.7680   -1.7720    1.9820 H   0  0  0  0  0  0  0  0  0  0  0  0
   -7.1410   -2.0690    0.2660 H   0  0  0  0  0  0  0  0  0  0  0  0
   -6.3390   -3.3290    1.2330 H   0  0  0  0  0  0  0  0  0  0  0  0
   -7.0370    2.3620    0.4080 H   0  0  0  0  0  0  0  0  0  0  0  0
   -7.1610   -0.0560    0.8470 H   0  0  0  0  0  0  0  0  0  0  0  0
  8 11  2  0  0  0  0
  1  8  1  0  0  0  0
  8 12  1  0  0  0  0
  1 13  1  0  0  0  0
 12 17  2  0  0  0  0
  9 13  2  0  0  0  0
 13 14  1  0  0  0  0
  9 16  1  0  0  0  0
 14 17  1  0  0  0  0
  7 17  1  0  0  0  0
 14 15  2  0  0  0  0
  7 18  2  0  0  0  0
  7 19  1  0  0  0  0
 10 16  2  0  0  0  0
  6 19  1  0  0  0  0
 19 20  1  0  0  0  0
  5  6  1  0  0  0  0
 10 15  1  0  0  0  0
  5 20  1  0  0  0  0
  5 21  1  0  0  0  0
  2  3  2  0  0  0  0
  3  4  1  0  0  0  0
  2 25  1  0  0  0  0
  4 21  1  0  0  0  0
  4 22  2  0  0  0  0
 25 26  2  0  0  0  0
 22 26  1  0  0  0  0
 22 23  1  0  0  0  0
 23 24  1  0  0  0  0
  1 27  1  0  0  0  0
  2 28  1  0  0  0  0
  3 29  1  0  0  0  0
  5 30  1  0  0  0  0
  6 31  1  0  0  0  0
  6 32  1  0  0  0  0
  9 33  1  0  0  0  0
 10 34  1  0  0  0  0
 12 35  1  0  0  0  0
 15 36  1  0  0  0  0
 16 37  1  0  0  0  0
 20 38  1  0  0  0  0
 20 39  1  0  0  0  0
 24 40  1  0  0  0  0
 24 41  1  0  0  0  0
 24 42  1  0  0  0  0
 25 43  1  0  0  0  0
 26 44  1  0  0  0  0
M  END
> <OPENEYE_ISO_SMILES>
COc1ccccc1OC2CN(C2)C(=O)c3cc(=O)[nH]c4c3cccc4

> <OPENEYE_INCHI>
InChI=1S/C20H18N2O4/c1-25-17-8-4-5-9-18(17)26-13-11-22(12-13)20(24)15-10-19(23)21-16-7-3-2-6-14(15)16/h2-10,13H,11-12H2,1H3,(H,21,23)

> <OPENEYE_INCHIKEY>
CEVTZHLIFCWJPO-UHFFFAOYSA-N

> <FORMULA>
C20H18N2O4

$$$$
