OO6
  -OEChem-05102419323D

 42 45  0     1  0  0  0  0  0999 V2000
   -3.3660    1.0010   -2.2120 N   0  0  0  0  0  0  0  0  0  0  0  0
    4.4990    0.2510   -0.8030 C   0  0  0  0  0  0  0  0  0  0  0  0
    4.5440   -1.1270   -0.7700 C   0  0  0  0  0  0  0  0  0  0  0  0
    3.5320   -1.8360   -0.1460 C   0  0  0  0  0  0  0  0  0  0  0  0
    2.4770   -1.1620    0.4400 C   0  0  0  0  0  0  0  0  0  0  0  0
    2.4280    0.2220    0.4080 C   0  0  0  0  0  0  0  0  0  0  0  0
    0.0580    0.8350    0.1460 C   0  0  0  0  0  0  0  0  0  0  0  0
   -4.4090    0.2670   -1.9030 C   0  0  0  0  0  0  0  0  0  0  0  0
   -5.5580   -1.1970   -0.3010 C   0  0  0  0  0  0  0  0  0  0  0  0
   -4.4840   -1.6870    1.7880 C   0  0  0  0  0  0  0  0  0  0  0  0
    0.2040    0.8760   -1.0570 O   0  0  0  0  0  0  0  0  0  0  0  0
    1.2580    0.9210    1.0540 C   0  0  2  0  0  0  0  0  0  0  0  0
    3.5860   -3.5710   -0.1010 Cl  0  0  0  0  0  0  0  0  0  0  0  0
    3.4400    0.9330   -0.2120 C   0  0  0  0  0  0  0  0  0  0  0  0
    3.4400    2.2910   -0.2520 O   0  0  0  0  0  0  0  0  0  0  0  0
    2.2090    2.9660    0.0120 C   0  0  0  0  0  0  0  0  0  0  0  0
    1.6080    2.3910    1.2980 C   0  0  1  0  0  0  0  0  0  0  0  0
    0.3420    3.1670    1.6700 C   0  0  0  0  0  0  0  0  0  0  0  0
   -1.1760    0.7110    0.6720 N   0  0  0  0  0  0  0  0  0  0  0  0
   -2.2790    0.5390   -0.1680 C   0  0  0  0  0  0  0  0  0  0  0  0
   -3.3700   -0.2660    0.2270 C   0  0  0  0  0  0  0  0  0  0  0  0
   -3.4030   -0.9240    1.4620 C   0  0  0  0  0  0  0  0  0  0  0  0
   -5.5570   -1.8230    0.9090 C   0  0  0  0  0  0  0  0  0  0  0  0
   -4.4620   -0.4020   -0.6690 C   0  0  0  0  0  0  0  0  0  0  0  0
   -2.3280    1.1520   -1.4020 C   0  0  0  0  0  0  0  0  0  0  0  0
    5.2910    0.8040   -1.2870 H   0  0  0  0  0  0  0  0  0  0  0  0
    5.3670   -1.6530   -1.2300 H   0  0  0  0  0  0  0  0  0  0  0  0
    1.6880   -1.7170    0.9250 H   0  0  0  0  0  0  0  0  0  0  0  0
   -5.2290    0.1770   -2.6000 H   0  0  0  0  0  0  0  0  0  0  0  0
   -6.3970   -1.3110   -0.9710 H   0  0  0  0  0  0  0  0  0  0  0  0
   -4.5100   -2.1950    2.7400 H   0  0  0  0  0  0  0  0  0  0  0  0
    1.0290    0.4400    2.0050 H   0  0  0  0  0  0  0  0  0  0  0  0
    2.3960    4.0330    0.1400 H   0  0  0  0  0  0  0  0  0  0  0  0
    1.5200    2.8120   -0.8180 H   0  0  0  0  0  0  0  0  0  0  0  0
    2.3350    2.4660    2.1060 H   0  0  0  0  0  0  0  0  0  0  0  0
   -0.0440    2.7990    2.6200 H   0  0  0  0  0  0  0  0  0  0  0  0
    0.5790    4.2270    1.7600 H   0  0  0  0  0  0  0  0  0  0  0  0
   -0.4100    3.0270    0.8940 H   0  0  0  0  0  0  0  0  0  0  0  0
   -1.3000    0.7420    1.6330 H   0  0  0  0  0  0  0  0  0  0  0  0
   -2.5780   -0.8270    2.1530 H   0  0  0  0  0  0  0  0  0  0  0  0
   -6.4010   -2.4350    1.1910 H   0  0  0  0  0  0  0  0  0  0  0  0
   -1.5000    1.7710   -1.7170 H   0  0  0  0  0  0  0  0  0  0  0  0
  1  8  2  0  0  0  0
  1 25  1  0  0  0  0
  8 24  1  0  0  0  0
 20 25  2  0  0  0  0
  9 24  2  0  0  0  0
 21 24  1  0  0  0  0
  9 23  1  0  0  0  0
 20 21  1  0  0  0  0
 19 20  1  0  0  0  0
  4 13  1  0  0  0  0
 21 22  2  0  0  0  0
 10 23  2  0  0  0  0
  7 19  1  0  0  0  0
  7 11  2  0  0  0  0
  4  5  2  0  0  0  0
  3  4  1  0  0  0  0
  7 12  1  0  0  0  0
 10 22  1  0  0  0  0
  5  6  1  0  0  0  0
  2  3  2  0  0  0  0
  6 12  1  0  0  0  0
  6 14  2  0  0  0  0
 12 17  1  0  0  0  0
  2 14  1  0  0  0  0
 14 15  1  0  0  0  0
 17 18  1  0  0  0  0
 16 17  1  0  0  0  0
 15 16  1  0  0  0  0
  2 26  1  0  0  0  0
  3 27  1  0  0  0  0
  5 28  1  0  0  0  0
  8 29  1  0  0  0  0
  9 30  1  0  0  0  0
 10 31  1  0  0  0  0
 12 32  1  0  0  0  0
 16 33  1  0  0  0  0
 16 34  1  0  0  0  0
 17 35  1  0  0  0  0
 18 36  1  0  0  0  0
 18 37  1  0  0  0  0
 18 38  1  0  0  0  0
 19 39  1  0  0  0  0
 22 40  1  0  0  0  0
 23 41  1  0  0  0  0
 25 42  1  0  0  0  0
M  END
> <OPENEYE_ISO_SMILES>
C[C@@H]1COc2ccc(cc2[C@@H]1C(=O)Nc3cncc4c3cccc4)Cl

> <OPENEYE_INCHI>
InChI=1S/C20H17ClN2O2/c1-12-11-25-18-7-6-14(21)8-16(18)19(12)20(24)23-17-10-22-9-13-4-2-3-5-15(13)17/h2-10,12,19H,11H2,1H3,(H,23,24)/t12-,19-/m1/s1

> <OPENEYE_INCHIKEY>
SGXOKACJPFKOBB-CWTRNNRKSA-N

> <FORMULA>
C20H17ClN2O2

$$$$
