OQF
  -OEChem-05102419323D

 48 51  0     0  0  0  0  0  0999 V2000
   -0.5490   -0.2500    0.7220 N   0  0  0  0  0  0  0  0  0  0  0  0
    2.9850   -0.1710   -0.3380 N   0  0  0  0  0  0  0  0  0  0  0  0
   -2.2580    0.4220   -0.8480 C   0  0  0  0  0  0  0  0  0  0  0  0
   -1.7110    0.4770    0.4270 C   0  0  0  0  0  0  0  0  0  0  0  0
   -2.3140    1.2500    1.4100 C   0  0  0  0  0  0  0  0  0  0  0  0
   -3.4590    1.9650    1.1200 C   0  0  0  0  0  0  0  0  0  0  0  0
   -0.6100   -1.3880    1.6430 C   0  0  0  0  0  0  0  0  0  0  0  0
    0.0650   -3.4710    0.4430 C   0  0  0  0  0  0  0  0  0  0  0  0
    1.8490   -0.7520    0.3810 C   0  0  0  0  0  0  0  0  0  0  0  0
    5.8210    1.9280   -0.6990 C   0  0  0  0  0  0  0  0  0  0  0  0
    5.0450    2.3210    1.5310 C   0  0  0  0  0  0  0  0  0  0  0  0
    0.6930    1.0870   -0.5400 O   0  0  0  0  0  0  0  0  0  0  0  0
    0.6240    0.0950    0.1540 C   0  0  0  0  0  0  0  0  0  0  0  0
    3.8760    0.7590    0.1460 C   0  0  0  0  0  0  0  0  0  0  0  0
    4.0160    1.4220    1.3600 C   0  0  0  0  0  0  0  0  0  0  0  0
    5.9420    2.5680    0.5000 C   0  0  0  0  0  0  0  0  0  0  0  0
    4.7830    1.0090   -0.8990 C   0  0  0  0  0  0  0  0  0  0  0  0
    4.4200    0.2440   -1.9480 N   0  0  0  0  0  0  0  0  0  0  0  0
    3.3830   -0.4570   -1.6520 N   0  0  0  0  0  0  0  0  0  0  0  0
   -0.8980   -2.6470    0.8670 C   0  0  0  0  0  0  0  0  0  0  0  0
   -2.1200   -3.0260    0.5500 N   0  0  0  0  0  0  0  0  0  0  0  0
   -2.2410   -4.1240   -0.1170 C   0  0  0  0  0  0  0  0  0  0  0  0
   -0.7010   -4.8020   -0.4200 S   0  0  0  0  0  0  0  0  0  0  0  0
   -3.4030    1.1380   -1.1380 C   0  0  0  0  0  0  0  0  0  0  0  0
   -4.0070    1.9110   -0.1550 C   0  0  0  0  0  0  0  0  0  0  0  0
   -5.1670    2.6350   -0.4490 N   0  0  0  0  0  0  0  0  0  0  0  0
   -5.8160    2.4800   -1.7540 C   0  0  0  0  0  0  0  0  0  0  0  0
   -5.7330    3.5480    0.5470 C   0  0  0  0  0  0  0  0  0  0  0  0
   -1.7860   -0.1760   -1.6130 H   0  0  0  0  0  0  0  0  0  0  0  0
   -1.8880    1.2920    2.4010 H   0  0  0  0  0  0  0  0  0  0  0  0
   -3.9290    2.5650    1.8840 H   0  0  0  0  0  0  0  0  0  0  0  0
    0.3440   -1.4890    2.1590 H   0  0  0  0  0  0  0  0  0  0  0  0
   -1.4030   -1.2220    2.3730 H   0  0  0  0  0  0  0  0  0  0  0  0
    1.1260   -3.3410    0.5990 H   0  0  0  0  0  0  0  0  0  0  0  0
    1.6660   -1.7620    0.0150 H   0  0  0  0  0  0  0  0  0  0  0  0
    2.0730   -0.7880    1.4470 H   0  0  0  0  0  0  0  0  0  0  0  0
    6.5240    2.1310   -1.4930 H   0  0  0  0  0  0  0  0  0  0  0  0
    5.1550    2.8360    2.4730 H   0  0  0  0  0  0  0  0  0  0  0  0
    3.3220    1.2320    2.1650 H   0  0  0  0  0  0  0  0  0  0  0  0
    6.7440    3.2760    0.6490 H   0  0  0  0  0  0  0  0  0  0  0  0
   -3.1780   -4.5500   -0.4420 H   0  0  0  0  0  0  0  0  0  0  0  0
   -3.8290    1.0960   -2.1300 H   0  0  0  0  0  0  0  0  0  0  0  0
   -6.5500    1.6770   -1.7010 H   0  0  0  0  0  0  0  0  0  0  0  0
   -6.3150    3.4110   -2.0240 H   0  0  0  0  0  0  0  0  0  0  0  0
   -5.0660    2.2390   -2.5070 H   0  0  0  0  0  0  0  0  0  0  0  0
   -5.1730    3.4620    1.4780 H   0  0  0  0  0  0  0  0  0  0  0  0
   -5.6700    4.5720    0.1780 H   0  0  0  0  0  0  0  0  0  0  0  0
   -6.7770    3.2890    0.7250 H   0  0  0  0  0  0  0  0  0  0  0  0
 18 19  2  0  0  0  0
 17 18  1  0  0  0  0
 10 17  2  0  0  0  0
 10 16  1  0  0  0  0
  2 19  1  0  0  0  0
 14 17  1  0  0  0  0
 11 16  2  0  0  0  0
  2 14  1  0  0  0  0
  2  9  1  0  0  0  0
 14 15  2  0  0  0  0
 11 15  1  0  0  0  0
  9 13  1  0  0  0  0
 12 13  2  0  0  0  0
  1 13  1  0  0  0  0
 22 23  1  0  0  0  0
 21 22  2  0  0  0  0
  8 23  1  0  0  0  0
 20 21  1  0  0  0  0
  1  4  1  0  0  0  0
  1  7  1  0  0  0  0
  8 20  2  0  0  0  0
  7 20  1  0  0  0  0
  3  4  2  0  0  0  0
  3 24  1  0  0  0  0
  4  5  1  0  0  0  0
 24 25  2  0  0  0  0
  5  6  2  0  0  0  0
  6 25  1  0  0  0  0
 25 26  1  0  0  0  0
 26 28  1  0  0  0  0
 26 27  1  0  0  0  0
  3 29  1  0  0  0  0
  5 30  1  0  0  0  0
  6 31  1  0  0  0  0
  7 32  1  0  0  0  0
  7 33  1  0  0  0  0
  8 34  1  0  0  0  0
  9 35  1  0  0  0  0
  9 36  1  0  0  0  0
 10 37  1  0  0  0  0
 11 38  1  0  0  0  0
 15 39  1  0  0  0  0
 16 40  1  0  0  0  0
 22 41  1  0  0  0  0
 24 42  1  0  0  0  0
 27 43  1  0  0  0  0
 27 44  1  0  0  0  0
 27 45  1  0  0  0  0
 28 46  1  0  0  0  0
 28 47  1  0  0  0  0
 28 48  1  0  0  0  0
M  END
> <OPENEYE_ISO_SMILES>
CN(C)c1ccc(cc1)N(Cc2cscn2)C(=O)Cn3c4ccccc4nn3

> <OPENEYE_INCHI>
InChI=1S/C20H20N6OS/c1-24(2)16-7-9-17(10-8-16)25(11-15-13-28-14-21-15)20(27)12-26-19-6-4-3-5-18(19)22-23-26/h3-10,13-14H,11-12H2,1-2H3

> <OPENEYE_INCHIKEY>
BZTBYCRNDCQTCD-UHFFFAOYSA-N

> <FORMULA>
C20H20N6OS

$$$$
