OQL
  -OEChem-05102419323D

 40 43  0     1  0  0  0  0  0999 V2000
    0.7100   -0.5880    0.3890 N   0  0  0  0  0  0  0  0  0  0  0  0
   -3.6810   -2.7790    0.9890 C   0  0  0  0  0  0  0  0  0  0  0  0
   -2.2730   -2.7960    0.3810 C   0  0  0  0  0  0  0  0  0  0  0  0
   -1.5750   -1.4780    0.7140 C   0  0  1  0  0  0  0  0  0  0  0  0
   -0.2770   -1.3960   -0.0470 C   0  0  0  0  0  0  0  0  0  0  0  0
    1.9230   -0.5330   -0.3010 C   0  0  0  0  0  0  0  0  0  0  0  0
    4.2700   -0.4660   -1.7540 C   0  0  0  0  0  0  0  0  0  0  0  0
    5.4400    0.8620    1.4810 C   0  0  0  0  0  0  0  0  0  0  0  0
    3.0970    0.3800    1.6620 C   0  0  0  0  0  0  0  0  0  0  0  0
   -2.4470   -0.3090    0.3370 C   0  0  0  0  0  0  0  0  0  0  0  0
   -0.1200   -2.0560   -1.0520 O   0  0  0  0  0  0  0  0  0  0  0  0
   -4.4360   -1.6930    0.3470 N   0  0  0  0  0  0  0  0  0  0  0  0
   -3.8160   -0.4500    0.1740 C   0  0  0  0  0  0  0  0  0  0  0  0
   -4.5930    0.6510   -0.1690 C   0  0  0  0  0  0  0  0  0  0  0  0
   -4.0020    1.8850   -0.3510 C   0  0  0  0  0  0  0  0  0  0  0  0
   -1.8600    0.9320    0.1520 C   0  0  0  0  0  0  0  0  0  0  0  0
   -2.6340    2.0250   -0.1900 C   0  0  0  0  0  0  0  0  0  0  0  0
   -1.8890    3.5760   -0.4200 Cl  0  0  0  0  0  0  0  0  0  0  0  0
    3.0930   -0.0560    0.3310 C   0  0  0  0  0  0  0  0  0  0  0  0
    4.2580    0.8300    2.2170 C   0  0  0  0  0  0  0  0  0  0  0  0
    5.4720    0.4460    0.1840 C   0  0  0  0  0  0  0  0  0  0  0  0
    4.2960   -0.0240   -0.4210 C   0  0  0  0  0  0  0  0  0  0  0  0
    3.1520   -0.9080   -2.2810 N   0  0  0  0  0  0  0  0  0  0  0  0
    2.0090   -0.9480   -1.6130 C   0  0  0  0  0  0  0  0  0  0  0  0
    0.5760   -0.0420    1.1800 H   0  0  0  0  0  0  0  0  0  0  0  0
   -4.1760   -3.7320    0.8020 H   0  0  0  0  0  0  0  0  0  0  0  0
   -3.6180   -2.6000    2.0620 H   0  0  0  0  0  0  0  0  0  0  0  0
   -1.7040   -3.6260    0.7990 H   0  0  0  0  0  0  0  0  0  0  0  0
   -2.3440   -2.9100   -0.7010 H   0  0  0  0  0  0  0  0  0  0  0  0
   -1.3670   -1.4410    1.7840 H   0  0  0  0  0  0  0  0  0  0  0  0
    5.1740   -0.4500   -2.3440 H   0  0  0  0  0  0  0  0  0  0  0  0
    6.3460    1.2230    1.9450 H   0  0  0  0  0  0  0  0  0  0  0  0
    2.1880    0.3610    2.2440 H   0  0  0  0  0  0  0  0  0  0  0  0
   -5.3470   -1.8360    0.0470 H   0  0  0  0  0  0  0  0  0  0  0  0
   -5.6600    0.5410   -0.2940 H   0  0  0  0  0  0  0  0  0  0  0  0
   -4.6050    2.7400   -0.6170 H   0  0  0  0  0  0  0  0  0  0  0  0
   -0.7940    1.0470    0.2770 H   0  0  0  0  0  0  0  0  0  0  0  0
    4.2620    1.1660    3.2440 H   0  0  0  0  0  0  0  0  0  0  0  0
    6.3960    0.4760   -0.3740 H   0  0  0  0  0  0  0  0  0  0  0  0
    1.1240   -1.3240   -2.1050 H   0  0  0  0  0  0  0  0  0  0  0  0
  7 23  2  0  0  0  0
 23 24  1  0  0  0  0
  7 22  1  0  0  0  0
  6 24  2  0  0  0  0
 21 22  2  0  0  0  0
 19 22  1  0  0  0  0
  8 21  1  0  0  0  0
  6 19  1  0  0  0  0
  1  6  1  0  0  0  0
  9 19  2  0  0  0  0
  1  5  1  0  0  0  0
  8 20  2  0  0  0  0
 17 18  1  0  0  0  0
  5 11  2  0  0  0  0
  4  5  1  0  0  0  0
  9 20  1  0  0  0  0
 16 17  2  0  0  0  0
 10 16  1  0  0  0  0
 15 17  1  0  0  0  0
  4 10  1  0  0  0  0
  3  4  1  0  0  0  0
 10 13  2  0  0  0  0
 14 15  2  0  0  0  0
 13 14  1  0  0  0  0
 12 13  1  0  0  0  0
  2  3  1  0  0  0  0
  2 12  1  0  0  0  0
  1 25  1  0  0  0  0
  2 26  1  0  0  0  0
  2 27  1  0  0  0  0
  3 28  1  0  0  0  0
  3 29  1  0  0  0  0
  4 30  1  0  0  0  0
  7 31  1  0  0  0  0
  8 32  1  0  0  0  0
  9 33  1  0  0  0  0
 12 34  1  0  0  0  0
 14 35  1  0  0  0  0
 15 36  1  0  0  0  0
 16 37  1  0  0  0  0
 20 38  1  0  0  0  0
 21 39  1  0  0  0  0
 24 40  1  0  0  0  0
M  END
> <OPENEYE_ISO_SMILES>
c1ccc2c(c1)cncc2NC(=O)[C@@H]3CCNc4c3cc(cc4)Cl

> <OPENEYE_INCHI>
InChI=1S/C19H16ClN3O/c20-13-5-6-17-16(9-13)15(7-8-22-17)19(24)23-18-11-21-10-12-3-1-2-4-14(12)18/h1-6,9-11,15,22H,7-8H2,(H,23,24)/t15-/m1/s1

> <OPENEYE_INCHIKEY>
TUZBEGQKTWHIIP-OAHLLOKOSA-N

> <FORMULA>
C19H16ClN3O

$$$$
