OQX
  -OEChem-05102419323D

 48 51  0     0  0  0  0  0  0999 V2000
   -2.9530    0.8160   -0.2850 N   0  0  0  0  0  0  0  0  0  0  0  0
   -4.3830    0.9370   -1.9480 N   0  0  0  0  0  0  0  0  0  0  0  0
    1.2480   -1.3520    0.5430 C   0  0  0  0  0  0  0  0  0  0  0  0
    2.5580   -1.3330    1.0040 C   0  0  0  0  0  0  0  0  0  0  0  0
    3.4050   -2.3850    0.7180 C   0  0  0  0  0  0  0  0  0  0  0  0
    0.8190    0.7780    1.7420 C   0  0  0  0  0  0  0  0  0  0  0  0
    1.4450    1.8990    0.9520 C   0  0  0  0  0  0  0  0  0  0  0  0
    1.2660    4.0360   -0.1140 C   0  0  0  0  0  0  0  0  0  0  0  0
    2.7670    1.8130    0.5610 C   0  0  0  0  0  0  0  0  0  0  0  0
   -1.7150    0.9710    0.4830 C   0  0  0  0  0  0  0  0  0  0  0  0
   -6.3060   -0.2180   -0.7950 C   0  0  0  0  0  0  0  0  0  0  0  0
   -4.5150   -0.3790    1.3300 C   0  0  0  0  0  0  0  0  0  0  0  0
   -4.1180    0.2250    0.1420 C   0  0  0  0  0  0  0  0  0  0  0  0
   -1.2220   -1.1500   -0.4280 O   0  0  0  0  0  0  0  0  0  0  0  0
   -0.8320   -0.2300    0.2610 C   0  0  0  0  0  0  0  0  0  0  0  0
   -5.7890   -0.8880    1.4430 C   0  0  0  0  0  0  0  0  0  0  0  0
   -6.6770   -0.8060    0.3780 C   0  0  0  0  0  0  0  0  0  0  0  0
   -5.0180    0.3130   -0.9350 C   0  0  0  0  0  0  0  0  0  0  0  0
   -3.1840    1.2480   -1.6000 N   0  0  0  0  0  0  0  0  0  0  0  0
    0.3890   -0.2830    0.8280 N   0  0  0  0  0  0  0  0  0  0  0  0
    0.7920   -2.4290   -0.2070 C   0  0  0  0  0  0  0  0  0  0  0  0
    1.6410   -3.4800   -0.4920 C   0  0  0  0  0  0  0  0  0  0  0  0
    2.9490   -3.4600   -0.0310 C   0  0  0  0  0  0  0  0  0  0  0  0
    3.7850   -4.4950   -0.3130 O   0  0  0  0  0  0  0  0  0  0  0  0
    3.2490   -5.5690   -1.0880 C   0  0  0  0  0  0  0  0  0  0  0  0
    3.3400    2.8400   -0.1690 C   0  0  0  0  0  0  0  0  0  0  0  0
    5.0010    2.7330   -0.6620 Cl  0  0  0  0  0  0  0  0  0  0  0  0
    2.5880    3.9510   -0.5060 C   0  0  0  0  0  0  0  0  0  0  0  0
    0.6940    3.0100    0.6150 C   0  0  0  0  0  0  0  0  0  0  0  0
    2.9130   -0.4960    1.5870 H   0  0  0  0  0  0  0  0  0  0  0  0
    4.4240   -2.3700    1.0770 H   0  0  0  0  0  0  0  0  0  0  0  0
    1.5480    0.3780    2.4460 H   0  0  0  0  0  0  0  0  0  0  0  0
   -0.0440    1.1570    2.2900 H   0  0  0  0  0  0  0  0  0  0  0  0
    0.6790    4.9030   -0.3770 H   0  0  0  0  0  0  0  0  0  0  0  0
    3.3540    0.9460    0.8250 H   0  0  0  0  0  0  0  0  0  0  0  0
   -1.1940    1.8700    0.1550 H   0  0  0  0  0  0  0  0  0  0  0  0
   -1.9540    1.0550    1.5430 H   0  0  0  0  0  0  0  0  0  0  0  0
   -7.0060   -0.1620   -1.6170 H   0  0  0  0  0  0  0  0  0  0  0  0
   -3.8270   -0.4490    2.1590 H   0  0  0  0  0  0  0  0  0  0  0  0
   -6.0990   -1.3580    2.3650 H   0  0  0  0  0  0  0  0  0  0  0  0
   -7.6720   -1.2130    0.4800 H   0  0  0  0  0  0  0  0  0  0  0  0
   -0.2260   -2.4440   -0.5660 H   0  0  0  0  0  0  0  0  0  0  0  0
    1.2870   -4.3170   -1.0750 H   0  0  0  0  0  0  0  0  0  0  0  0
    4.0180   -6.3270   -1.2400 H   0  0  0  0  0  0  0  0  0  0  0  0
    2.4030   -6.0110   -0.5610 H   0  0  0  0  0  0  0  0  0  0  0  0
    2.9170   -5.1890   -2.0540 H   0  0  0  0  0  0  0  0  0  0  0  0
    3.0350    4.7530   -1.0760 H   0  0  0  0  0  0  0  0  0  0  0  0
   -0.3410    3.0740    0.9180 H   0  0  0  0  0  0  0  0  0  0  0  0
  2 19  2  0  0  0  0
  2 18  1  0  0  0  0
 11 18  2  0  0  0  0
 11 17  1  0  0  0  0
  1 19  1  0  0  0  0
 13 18  1  0  0  0  0
 16 17  2  0  0  0  0
  1 13  1  0  0  0  0
  1 10  1  0  0  0  0
 12 13  2  0  0  0  0
 10 15  1  0  0  0  0
 14 15  2  0  0  0  0
 12 16  1  0  0  0  0
 15 20  1  0  0  0  0
 26 27  1  0  0  0  0
 26 28  2  0  0  0  0
  9 26  1  0  0  0  0
  8 28  1  0  0  0  0
  7  9  2  0  0  0  0
  6 20  1  0  0  0  0
  3 20  1  0  0  0  0
  8 29  2  0  0  0  0
  7 29  1  0  0  0  0
  6  7  1  0  0  0  0
  3  4  2  0  0  0  0
  4  5  1  0  0  0  0
  3 21  1  0  0  0  0
  5 23  2  0  0  0  0
 21 22  2  0  0  0  0
 22 23  1  0  0  0  0
 23 24  1  0  0  0  0
 24 25  1  0  0  0  0
  4 30  1  0  0  0  0
  5 31  1  0  0  0  0
  6 32  1  0  0  0  0
  6 33  1  0  0  0  0
  8 34  1  0  0  0  0
  9 35  1  0  0  0  0
 10 36  1  0  0  0  0
 10 37  1  0  0  0  0
 11 38  1  0  0  0  0
 12 39  1  0  0  0  0
 16 40  1  0  0  0  0
 17 41  1  0  0  0  0
 21 42  1  0  0  0  0
 22 43  1  0  0  0  0
 25 44  1  0  0  0  0
 25 45  1  0  0  0  0
 25 46  1  0  0  0  0
 28 47  1  0  0  0  0
 29 48  1  0  0  0  0
M  END
> <OPENEYE_ISO_SMILES>
COc1ccc(cc1)N(Cc2cccc(c2)Cl)C(=O)Cn3c4ccccc4nn3

> <OPENEYE_INCHI>
InChI=1S/C22H19ClN4O2/c1-29-19-11-9-18(10-12-19)26(14-16-5-4-6-17(23)13-16)22(28)15-27-21-8-3-2-7-20(21)24-25-27/h2-13H,14-15H2,1H3

> <OPENEYE_INCHIKEY>
RVLKWCGLMRBJIF-UHFFFAOYSA-N

> <FORMULA>
C22H19ClN4O2

$$$$
