ORR
  -OEChem-05102419323D

 37 39  0     0  0  0  0  0  0999 V2000
   -3.0200   -2.3980   -0.5120 N   0  0  0  0  0  0  0  0  0  0  0  0
   -1.6650    2.2130   -0.2160 C   0  0  0  0  0  0  0  0  0  0  0  0
   -2.6390    2.3660    0.9600 C   0  0  0  0  0  0  0  0  0  0  0  0
   -3.9170    1.5840    0.6510 C   0  0  0  0  0  0  0  0  0  0  0  0
   -3.5840    0.1780    0.2370 C   0  0  0  0  0  0  0  0  0  0  0  0
   -0.0280    0.4170   -0.5140 C   0  0  0  0  0  0  0  0  0  0  0  0
    2.4050    0.7700   -0.6310 C   0  0  0  0  0  0  0  0  0  0  0  0
    4.8570   -0.4940   -0.8240 C   0  0  0  0  0  0  0  0  0  0  0  0
    3.0820    0.3970    0.5160 C   0  0  0  0  0  0  0  0  0  0  0  0
    5.1580   -0.7050    1.8590 Cl  0  0  0  0  0  0  0  0  0  0  0  0
    4.3080   -0.2350    0.4200 C   0  0  0  0  0  0  0  0  0  0  0  0
    4.1790   -0.1220   -1.9690 C   0  0  0  0  0  0  0  0  0  0  0  0
    2.9540    0.5110   -1.8720 C   0  0  0  0  0  0  0  0  0  0  0  0
    1.0660    1.4540   -0.5260 C   0  0  0  0  0  0  0  0  0  0  0  0
    0.2450   -0.7540   -0.6730 O   0  0  0  0  0  0  0  0  0  0  0  0
   -1.3090    0.7910   -0.3250 N   0  0  0  0  0  0  0  0  0  0  0  0
   -4.5560   -0.8160    0.3170 C   0  0  0  0  0  0  0  0  0  0  0  0
   -5.8390   -0.5180    0.7810 N   0  0  0  0  0  0  0  0  0  0  0  0
   -2.3250   -0.1680   -0.2280 C   0  0  0  0  0  0  0  0  0  0  0  0
   -2.0750   -1.4830   -0.6010 C   0  0  0  0  0  0  0  0  0  0  0  0
   -4.2290   -2.1100   -0.0720 C   0  0  0  0  0  0  0  0  0  0  0  0
   -2.1450    2.5440   -1.1380 H   0  0  0  0  0  0  0  0  0  0  0  0
   -0.7690    2.8060   -0.0330 H   0  0  0  0  0  0  0  0  0  0  0  0
   -2.1800    1.9720    1.8670 H   0  0  0  0  0  0  0  0  0  0  0  0
   -2.8790    3.4200    1.1000 H   0  0  0  0  0  0  0  0  0  0  0  0
   -4.5470    1.5590    1.5390 H   0  0  0  0  0  0  0  0  0  0  0  0
   -4.4540    2.0780   -0.1590 H   0  0  0  0  0  0  0  0  0  0  0  0
    5.8150   -0.9880   -0.8990 H   0  0  0  0  0  0  0  0  0  0  0  0
    2.6530    0.6000    1.4860 H   0  0  0  0  0  0  0  0  0  0  0  0
    4.6080   -0.3240   -2.9400 H   0  0  0  0  0  0  0  0  0  0  0  0
    2.4250    0.8030   -2.7680 H   0  0  0  0  0  0  0  0  0  0  0  0
    0.9290    2.1160   -1.3810 H   0  0  0  0  0  0  0  0  0  0  0  0
    1.0260    2.0350    0.3950 H   0  0  0  0  0  0  0  0  0  0  0  0
   -6.0600    0.3870    1.0500 H   0  0  0  0  0  0  0  0  0  0  0  0
   -6.5100   -1.2170    0.8330 H   0  0  0  0  0  0  0  0  0  0  0  0
   -1.0970   -1.7590   -0.9660 H   0  0  0  0  0  0  0  0  0  0  0  0
   -4.9750   -2.8890   -0.0140 H   0  0  0  0  0  0  0  0  0  0  0  0
  1 21  2  0  0  0  0
  1 20  1  0  0  0  0
 17 21  1  0  0  0  0
 19 20  2  0  0  0  0
 17 18  1  0  0  0  0
  5 17  2  0  0  0  0
  5 19  1  0  0  0  0
 16 19  1  0  0  0  0
  4  5  1  0  0  0  0
  6 15  2  0  0  0  0
 10 11  1  0  0  0  0
  6 16  1  0  0  0  0
  2 16  1  0  0  0  0
  6 14  1  0  0  0  0
  3  4  1  0  0  0  0
  9 11  2  0  0  0  0
  7  9  1  0  0  0  0
  8 11  1  0  0  0  0
  2  3  1  0  0  0  0
  7 14  1  0  0  0  0
  7 13  2  0  0  0  0
  8 12  2  0  0  0  0
 12 13  1  0  0  0  0
  2 22  1  0  0  0  0
  2 23  1  0  0  0  0
  3 24  1  0  0  0  0
  3 25  1  0  0  0  0
  4 26  1  0  0  0  0
  4 27  1  0  0  0  0
  8 28  1  0  0  0  0
  9 29  1  0  0  0  0
 12 30  1  0  0  0  0
 13 31  1  0  0  0  0
 14 32  1  0  0  0  0
 14 33  1  0  0  0  0
 18 34  1  0  0  0  0
 18 35  1  0  0  0  0
 20 36  1  0  0  0  0
 21 37  1  0  0  0  0
M  END
> <OPENEYE_ISO_SMILES>
c1cc(cc(c1)Cl)CC(=O)N2CCCc3c2cncc3N

> <OPENEYE_INCHI>
InChI=1S/C16H16ClN3O/c17-12-4-1-3-11(7-12)8-16(21)20-6-2-5-13-14(18)9-19-10-15(13)20/h1,3-4,7,9-10H,2,5-6,8,18H2

> <OPENEYE_INCHIKEY>
KFDIFJWRZNKQEO-UHFFFAOYSA-N

> <FORMULA>
C16H16ClN3O

$$$$
