OSI
  -OEChem-05102419323D

 42 45  0     1  0  0  0  0  0999 V2000
   -3.3210   -1.8320    1.7280 N   0  0  0  0  0  0  0  0  0  0  0  0
    3.3550   -0.7030    0.4450 C   0  0  0  0  0  0  0  0  0  0  0  0
    4.1010    0.1850    1.2140 C   0  0  0  0  0  0  0  0  0  0  0  0
    3.8130    1.5350    1.1910 C   0  0  0  0  0  0  0  0  0  0  0  0
    2.7800    2.0080    0.4010 C   0  0  0  0  0  0  0  0  0  0  0  0
    2.0370    1.1280   -0.3630 C   0  0  0  0  0  0  0  0  0  0  0  0
    0.1620   -1.3910   -0.5060 C   0  0  0  0  0  0  0  0  0  0  0  0
   -4.3790   -1.1130    1.4360 C   0  0  0  0  0  0  0  0  0  0  0  0
   -5.3880    0.7480    0.1900 C   0  0  0  0  0  0  0  0  0  0  0  0
   -3.9960    2.0430   -1.2730 C   0  0  0  0  0  0  0  0  0  0  0  0
   -0.1660   -2.5150   -0.1890 O   0  0  0  0  0  0  0  0  0  0  0  0
    1.4860   -1.1570   -1.1870 C   0  0  1  0  0  0  0  0  0  0  0  0
    2.3230   -0.2270   -0.3450 C   0  0  0  0  0  0  0  0  0  0  0  0
    2.4150    3.7040    0.3730 Cl  0  0  0  0  0  0  0  0  0  0  0  0
    3.6710   -2.0230    0.4910 O   0  0  0  0  0  0  0  0  0  0  0  0
    2.7020   -2.9590    0.0170 C   0  0  0  0  0  0  0  0  0  0  0  0
    2.2130   -2.4910   -1.3600 C   0  0  0  0  0  0  0  0  0  0  0  0
    1.2470   -0.5250   -2.5600 C   0  0  0  0  0  0  0  0  0  0  0  0
   -0.6570   -0.3520   -0.2490 N   0  0  0  0  0  0  0  0  0  0  0  0
   -1.9220   -0.5790    0.2980 C   0  0  0  0  0  0  0  0  0  0  0  0
   -3.0200    0.2340   -0.0600 C   0  0  0  0  0  0  0  0  0  0  0  0
   -2.9000    1.2930   -0.9670 C   0  0  0  0  0  0  0  0  0  0  0  0
   -5.2350    1.7710   -0.6960 C   0  0  0  0  0  0  0  0  0  0  0  0
   -4.2800   -0.0460    0.5290 C   0  0  0  0  0  0  0  0  0  0  0  0
   -2.1280   -1.6020    1.1990 C   0  0  0  0  0  0  0  0  0  0  0  0
    4.9060   -0.1830    1.8320 H   0  0  0  0  0  0  0  0  0  0  0  0
    4.3940    2.2210    1.7890 H   0  0  0  0  0  0  0  0  0  0  0  0
    1.2300    1.4980   -0.9780 H   0  0  0  0  0  0  0  0  0  0  0  0
   -5.3300   -1.3430    1.8950 H   0  0  0  0  0  0  0  0  0  0  0  0
   -6.3540    0.5490    0.6300 H   0  0  0  0  0  0  0  0  0  0  0  0
   -3.9040    2.8610   -1.9720 H   0  0  0  0  0  0  0  0  0  0  0  0
    3.1560   -3.9460   -0.0710 H   0  0  0  0  0  0  0  0  0  0  0  0
    1.8620   -3.0010    0.7100 H   0  0  0  0  0  0  0  0  0  0  0  0
    1.5290   -3.2300   -1.7780 H   0  0  0  0  0  0  0  0  0  0  0  0
    3.0660   -2.3610   -2.0260 H   0  0  0  0  0  0  0  0  0  0  0  0
    0.7280    0.4250   -2.4370 H   0  0  0  0  0  0  0  0  0  0  0  0
    2.2040   -0.3550   -3.0530 H   0  0  0  0  0  0  0  0  0  0  0  0
    0.6390   -1.1950   -3.1670 H   0  0  0  0  0  0  0  0  0  0  0  0
   -0.3680    0.5530   -0.4430 H   0  0  0  0  0  0  0  0  0  0  0  0
   -1.9450    1.5150   -1.4210 H   0  0  0  0  0  0  0  0  0  0  0  0
   -6.0880    2.3810   -0.9550 H   0  0  0  0  0  0  0  0  0  0  0  0
   -1.2970   -2.2310    1.4820 H   0  0  0  0  0  0  0  0  0  0  0  0
  1  8  2  0  0  0  0
  1 25  1  0  0  0  0
  8 24  1  0  0  0  0
 20 25  2  0  0  0  0
  9 24  2  0  0  0  0
 21 24  1  0  0  0  0
  9 23  1  0  0  0  0
 20 21  1  0  0  0  0
 19 20  1  0  0  0  0
 21 22  2  0  0  0  0
 10 23  2  0  0  0  0
  5 14  1  0  0  0  0
  7 19  1  0  0  0  0
  7 11  2  0  0  0  0
  7 12  1  0  0  0  0
 10 22  1  0  0  0  0
  5  6  2  0  0  0  0
  4  5  1  0  0  0  0
  6 13  1  0  0  0  0
  3  4  2  0  0  0  0
 12 13  1  0  0  0  0
  2 13  2  0  0  0  0
 12 18  1  0  0  0  0
 12 17  1  0  0  0  0
  2  3  1  0  0  0  0
  2 15  1  0  0  0  0
 16 17  1  0  0  0  0
 15 16  1  0  0  0  0
  3 26  1  0  0  0  0
  4 27  1  0  0  0  0
  6 28  1  0  0  0  0
  8 29  1  0  0  0  0
  9 30  1  0  0  0  0
 10 31  1  0  0  0  0
 16 32  1  0  0  0  0
 16 33  1  0  0  0  0
 17 34  1  0  0  0  0
 17 35  1  0  0  0  0
 18 36  1  0  0  0  0
 18 37  1  0  0  0  0
 18 38  1  0  0  0  0
 19 39  1  0  0  0  0
 22 40  1  0  0  0  0
 23 41  1  0  0  0  0
 25 42  1  0  0  0  0
M  END
> <OPENEYE_ISO_SMILES>
C[C@]1(CCOc2c1cc(cc2)Cl)C(=O)Nc3cncc4c3cccc4

> <OPENEYE_INCHI>
InChI=1S/C20H17ClN2O2/c1-20(8-9-25-18-7-6-14(21)10-16(18)20)19(24)23-17-12-22-11-13-4-2-3-5-15(13)17/h2-7,10-12H,8-9H2,1H3,(H,23,24)/t20-/m1/s1

> <OPENEYE_INCHIKEY>
CPQDCUNLQZNEBN-HXUWFJFHSA-N

> <FORMULA>
C20H17ClN2O2

$$$$
