OV4
  -OEChem-05102419323D

 52 55  0     0  0  0  0  0  0999 V2000
   -0.5440    0.4050    0.7150 N   0  0  0  0  0  0  0  0  0  0  0  0
    3.4880    0.8910   -1.3790 N   0  0  0  0  0  0  0  0  0  0  0  0
   -1.5280   -1.4540   -0.4740 C   0  0  0  0  0  0  0  0  0  0  0  0
   -1.6480   -0.4120    0.4350 C   0  0  0  0  0  0  0  0  0  0  0  0
   -2.8620   -0.1780    1.0670 C   0  0  0  0  0  0  0  0  0  0  0  0
   -3.9500   -0.9830    0.7920 C   0  0  0  0  0  0  0  0  0  0  0  0
   -0.7090    1.6010    1.5440 C   0  0  0  0  0  0  0  0  0  0  0  0
   -2.4930    2.9260    0.3930 C   0  0  0  0  0  0  0  0  0  0  0  0
   -0.6250    4.6960   -0.6160 C   0  0  0  0  0  0  0  0  0  0  0  0
    0.6710    0.0860    0.2260 C   0  0  0  0  0  0  0  0  0  0  0  0
    4.8770   -0.6540   -0.7760 C   0  0  0  0  0  0  0  0  0  0  0  0
    5.0600   -2.2840    1.4610 C   0  0  0  0  0  0  0  0  0  0  0  0
    4.0290   -1.3760    1.3730 C   0  0  0  0  0  0  0  0  0  0  0  0
    3.9270   -0.5540    0.2560 C   0  0  0  0  0  0  0  0  0  0  0  0
    0.7930   -0.8570   -0.5280 O   0  0  0  0  0  0  0  0  0  0  0  0
    1.8770    0.9000    0.6160 C   0  0  0  0  0  0  0  0  0  0  0  0
    3.0460    0.4280   -0.1300 N   0  0  0  0  0  0  0  0  0  0  0  0
    5.9970   -2.3840    0.4410 C   0  0  0  0  0  0  0  0  0  0  0  0
    5.9160   -1.5860   -0.6630 C   0  0  0  0  0  0  0  0  0  0  0  0
    4.5460    0.2460   -1.7240 N   0  0  0  0  0  0  0  0  0  0  0  0
   -2.6160   -2.2590   -0.7500 C   0  0  0  0  0  0  0  0  0  0  0  0
   -3.8300   -2.0260   -0.1170 C   0  0  0  0  0  0  0  0  0  0  0  0
   -4.9320   -2.8410   -0.3960 N   0  0  0  0  0  0  0  0  0  0  0  0
   -4.7760   -4.0120   -1.2620 C   0  0  0  0  0  0  0  0  0  0  0  0
   -6.2420   -2.5240    0.1790 C   0  0  0  0  0  0  0  0  0  0  0  0
   -1.1530    2.7530    0.6800 C   0  0  0  0  0  0  0  0  0  0  0  0
   -0.2180    3.6390    0.1760 C   0  0  0  0  0  0  0  0  0  0  0  0
   -1.9650    4.8650   -0.9090 C   0  0  0  0  0  0  0  0  0  0  0  0
   -2.9000    3.9800   -0.4040 C   0  0  0  0  0  0  0  0  0  0  0  0
   -0.5860   -1.6330   -0.9700 H   0  0  0  0  0  0  0  0  0  0  0  0
   -2.9560    0.6320    1.7750 H   0  0  0  0  0  0  0  0  0  0  0  0
   -4.8940   -0.8020    1.2850 H   0  0  0  0  0  0  0  0  0  0  0  0
   -1.4610    1.4110    2.3110 H   0  0  0  0  0  0  0  0  0  0  0  0
    0.2400    1.8470    2.0200 H   0  0  0  0  0  0  0  0  0  0  0  0
   -3.2240    2.2340    0.7870 H   0  0  0  0  0  0  0  0  0  0  0  0
    0.1050    5.3880   -1.0100 H   0  0  0  0  0  0  0  0  0  0  0  0
    5.1410   -2.9220    2.3280 H   0  0  0  0  0  0  0  0  0  0  0  0
    3.3020   -1.3020    2.1690 H   0  0  0  0  0  0  0  0  0  0  0  0
    1.6970    1.9500    0.3840 H   0  0  0  0  0  0  0  0  0  0  0  0
    2.0600    0.7900    1.6850 H   0  0  0  0  0  0  0  0  0  0  0  0
    6.8010   -3.1010    0.5230 H   0  0  0  0  0  0  0  0  0  0  0  0
    6.6520   -1.6740   -1.4480 H   0  0  0  0  0  0  0  0  0  0  0  0
   -2.5240   -3.0660   -1.4610 H   0  0  0  0  0  0  0  0  0  0  0  0
   -4.5170   -4.8810   -0.6560 H   0  0  0  0  0  0  0  0  0  0  0  0
   -5.7120   -4.2020   -1.7880 H   0  0  0  0  0  0  0  0  0  0  0  0
   -3.9830   -3.8260   -1.9860 H   0  0  0  0  0  0  0  0  0  0  0  0
   -6.1850   -1.5740    0.7110 H   0  0  0  0  0  0  0  0  0  0  0  0
   -6.9800   -2.4490   -0.6200 H   0  0  0  0  0  0  0  0  0  0  0  0
   -6.5350   -3.3120    0.8720 H   0  0  0  0  0  0  0  0  0  0  0  0
    0.8300    3.5040    0.4010 H   0  0  0  0  0  0  0  0  0  0  0  0
   -2.2830    5.6910   -1.5280 H   0  0  0  0  0  0  0  0  0  0  0  0
   -3.9470    4.1110   -0.6330 H   0  0  0  0  0  0  0  0  0  0  0  0
  2 20  2  0  0  0  0
 11 20  1  0  0  0  0
 11 19  2  0  0  0  0
 18 19  1  0  0  0  0
  2 17  1  0  0  0  0
 11 14  1  0  0  0  0
 12 18  2  0  0  0  0
 14 17  1  0  0  0  0
 16 17  1  0  0  0  0
 13 14  2  0  0  0  0
 12 13  1  0  0  0  0
 10 16  1  0  0  0  0
 10 15  2  0  0  0  0
  1 10  1  0  0  0  0
  9 28  2  0  0  0  0
  9 27  1  0  0  0  0
 28 29  1  0  0  0  0
 26 27  2  0  0  0  0
  1  4  1  0  0  0  0
  1  7  1  0  0  0  0
  4  5  2  0  0  0  0
  5  6  1  0  0  0  0
  8 29  2  0  0  0  0
  7 26  1  0  0  0  0
  8 26  1  0  0  0  0
  3  4  1  0  0  0  0
  6 22  2  0  0  0  0
  3 21  2  0  0  0  0
 21 22  1  0  0  0  0
 22 23  1  0  0  0  0
 23 24  1  0  0  0  0
 23 25  1  0  0  0  0
  3 30  1  0  0  0  0
  5 31  1  0  0  0  0
  6 32  1  0  0  0  0
  7 33  1  0  0  0  0
  7 34  1  0  0  0  0
  8 35  1  0  0  0  0
  9 36  1  0  0  0  0
 12 37  1  0  0  0  0
 13 38  1  0  0  0  0
 16 39  1  0  0  0  0
 16 40  1  0  0  0  0
 18 41  1  0  0  0  0
 19 42  1  0  0  0  0
 21 43  1  0  0  0  0
 24 44  1  0  0  0  0
 24 45  1  0  0  0  0
 24 46  1  0  0  0  0
 25 47  1  0  0  0  0
 25 48  1  0  0  0  0
 25 49  1  0  0  0  0
 27 50  1  0  0  0  0
 28 51  1  0  0  0  0
 29 52  1  0  0  0  0
M  END
> <OPENEYE_ISO_SMILES>
CN(C)c1ccc(cc1)N(Cc2ccccc2)C(=O)Cn3c4ccccc4nn3

> <OPENEYE_INCHI>
InChI=1S/C23H23N5O/c1-26(2)19-12-14-20(15-13-19)27(16-18-8-4-3-5-9-18)23(29)17-28-22-11-7-6-10-21(22)24-25-28/h3-15H,16-17H2,1-2H3

> <OPENEYE_INCHIKEY>
KOZCSUYCMLWBNN-UHFFFAOYSA-N

> <FORMULA>
C23H23N5O

$$$$
