OVF
  -OEChem-05102419323D

 52 55  0     0  0  0  0  0  0999 V2000
   -0.6000   -0.1000    0.8080 N   0  0  0  0  0  0  0  0  0  0  0  0
    3.4730    0.2920   -1.2260 N   0  0  0  0  0  0  0  0  0  0  0  0
   -1.6910   -1.7900   -0.5320 C   0  0  0  0  0  0  0  0  0  0  0  0
   -1.7520   -0.8180    0.4590 C   0  0  0  0  0  0  0  0  0  0  0  0
   -2.9540   -0.5590    1.1030 C   0  0  0  0  0  0  0  0  0  0  0  0
   -4.0890   -1.2660    0.7600 C   0  0  0  0  0  0  0  0  0  0  0  0
   -0.6960    1.0330    1.7300 C   0  0  0  0  0  0  0  0  0  0  0  0
   -2.3820    2.5590    0.6840 C   0  0  0  0  0  0  0  0  0  0  0  0
   -0.3950    4.2820   -0.1720 C   0  0  0  0  0  0  0  0  0  0  0  0
    0.5960   -0.4560    0.2990 C   0  0  0  0  0  0  0  0  0  0  0  0
    4.7540   -1.3830   -0.7460 C   0  0  0  0  0  0  0  0  0  0  0  0
    4.8130   -3.1970    1.3510 C   0  0  0  0  0  0  0  0  0  0  0  0
    3.8430   -2.2200    1.3340 C   0  0  0  0  0  0  0  0  0  0  0  0
    3.8040   -1.3060    0.2870 C   0  0  0  0  0  0  0  0  0  0  0  0
    0.6640   -1.3410   -0.5290 O   0  0  0  0  0  0  0  0  0  0  0  0
    1.8490    0.2440    0.7580 C   0  0  0  0  0  0  0  0  0  0  0  0
    2.9920   -0.2400   -0.0200 N   0  0  0  0  0  0  0  0  0  0  0  0
    5.7510   -3.2750    0.3300 C   0  0  0  0  0  0  0  0  0  0  0  0
    5.7300   -2.3870   -0.7060 C   0  0  0  0  0  0  0  0  0  0  0  0
    4.4900   -0.3890   -1.6190 N   0  0  0  0  0  0  0  0  0  0  0  0
   -2.8260   -2.4980   -0.8750 C   0  0  0  0  0  0  0  0  0  0  0  0
   -4.0280   -2.2380   -0.2300 C   0  0  0  0  0  0  0  0  0  0  0  0
   -5.1770   -2.9560   -0.5770 N   0  0  0  0  0  0  0  0  0  0  0  0
   -5.1130   -3.9810   -1.6220 C   0  0  0  0  0  0  0  0  0  0  0  0
   -6.4450   -2.6820    0.1040 C   0  0  0  0  0  0  0  0  0  0  0  0
   -1.0570    2.2780    0.9610 C   0  0  0  0  0  0  0  0  0  0  0  0
   -0.0640    3.1390    0.5340 C   0  0  0  0  0  0  0  0  0  0  0  0
    0.8520    5.3630   -0.7090 Cl  0  0  0  0  0  0  0  0  0  0  0  0
   -1.7210    4.5600   -0.4540 C   0  0  0  0  0  0  0  0  0  0  0  0
   -2.7140    3.6980   -0.0250 C   0  0  0  0  0  0  0  0  0  0  0  0
   -0.7570   -1.9890   -1.0360 H   0  0  0  0  0  0  0  0  0  0  0  0
   -3.0010    0.1970    1.8740 H   0  0  0  0  0  0  0  0  0  0  0  0
   -5.0240   -1.0650    1.2630 H   0  0  0  0  0  0  0  0  0  0  0  0
   -1.4640    0.8310    2.4760 H   0  0  0  0  0  0  0  0  0  0  0  0
    0.2640    1.1790    2.2270 H   0  0  0  0  0  0  0  0  0  0  0  0
   -3.1580    1.8860    1.0180 H   0  0  0  0  0  0  0  0  0  0  0  0
    4.8450   -3.9070    2.1640 H   0  0  0  0  0  0  0  0  0  0  0  0
    3.1150   -2.1640    2.1310 H   0  0  0  0  0  0  0  0  0  0  0  0
    1.7380    1.3180    0.6110 H   0  0  0  0  0  0  0  0  0  0  0  0
    2.0140    0.0360    1.8150 H   0  0  0  0  0  0  0  0  0  0  0  0
    6.5060   -4.0460    0.3560 H   0  0  0  0  0  0  0  0  0  0  0  0
    6.4660   -2.4570   -1.4930 H   0  0  0  0  0  0  0  0  0  0  0  0
   -2.7790   -3.2500   -1.6490 H   0  0  0  0  0  0  0  0  0  0  0  0
   -4.8690   -4.9430   -1.1720 H   0  0  0  0  0  0  0  0  0  0  0  0
   -6.0780   -4.0490   -2.1240 H   0  0  0  0  0  0  0  0  0  0  0  0
   -4.3440   -3.7130   -2.3470 H   0  0  0  0  0  0  0  0  0  0  0  0
   -6.7270   -1.6420   -0.0560 H   0  0  0  0  0  0  0  0  0  0  0  0
   -7.2210   -3.3340   -0.2980 H   0  0  0  0  0  0  0  0  0  0  0  0
   -6.3320   -2.8680    1.1720 H   0  0  0  0  0  0  0  0  0  0  0  0
    0.9710    2.9190    0.7500 H   0  0  0  0  0  0  0  0  0  0  0  0
   -1.9800    5.4510   -1.0040 H   0  0  0  0  0  0  0  0  0  0  0  0
   -3.7480    3.9150   -0.2450 H   0  0  0  0  0  0  0  0  0  0  0  0
  2 20  2  0  0  0  0
 11 20  1  0  0  0  0
 11 19  2  0  0  0  0
 18 19  1  0  0  0  0
  2 17  1  0  0  0  0
 11 14  1  0  0  0  0
 12 18  2  0  0  0  0
 14 17  1  0  0  0  0
 16 17  1  0  0  0  0
 13 14  2  0  0  0  0
 12 13  1  0  0  0  0
 10 16  1  0  0  0  0
 10 15  2  0  0  0  0
  9 28  1  0  0  0  0
  1 10  1  0  0  0  0
  9 29  2  0  0  0  0
  9 27  1  0  0  0  0
 29 30  1  0  0  0  0
 26 27  2  0  0  0  0
  1  4  1  0  0  0  0
  1  7  1  0  0  0  0
  4  5  2  0  0  0  0
  5  6  1  0  0  0  0
  8 30  2  0  0  0  0
  7 26  1  0  0  0  0
  8 26  1  0  0  0  0
  3  4  1  0  0  0  0
  6 22  2  0  0  0  0
  3 21  2  0  0  0  0
 23 24  1  0  0  0  0
 21 22  1  0  0  0  0
 22 23  1  0  0  0  0
 23 25  1  0  0  0  0
  3 31  1  0  0  0  0
  5 32  1  0  0  0  0
  6 33  1  0  0  0  0
  7 34  1  0  0  0  0
  7 35  1  0  0  0  0
  8 36  1  0  0  0  0
 12 37  1  0  0  0  0
 13 38  1  0  0  0  0
 16 39  1  0  0  0  0
 16 40  1  0  0  0  0
 18 41  1  0  0  0  0
 19 42  1  0  0  0  0
 21 43  1  0  0  0  0
 24 44  1  0  0  0  0
 24 45  1  0  0  0  0
 24 46  1  0  0  0  0
 25 47  1  0  0  0  0
 25 48  1  0  0  0  0
 25 49  1  0  0  0  0
 27 50  1  0  0  0  0
 29 51  1  0  0  0  0
 30 52  1  0  0  0  0
M  END
> <OPENEYE_ISO_SMILES>
CN(C)c1ccc(cc1)N(Cc2cccc(c2)Cl)C(=O)Cn3c4ccccc4nn3

> <OPENEYE_INCHI>
InChI=1S/C23H22ClN5O/c1-27(2)19-10-12-20(13-11-19)28(15-17-6-5-7-18(24)14-17)23(30)16-29-22-9-4-3-8-21(22)25-26-29/h3-14H,15-16H2,1-2H3

> <OPENEYE_INCHIKEY>
DJHGLSHYLFLFFG-UHFFFAOYSA-N

> <FORMULA>
C23H22ClN5O

$$$$
