OVX
  -OEChem-05102419323D

 42 45  0     0  0  0  0  0  0999 V2000
   -0.7590   -1.3110   -1.0670 N   0  0  0  0  0  0  0  0  0  0  0  0
    3.1710   -0.5730   -0.0190 C   0  0  0  0  0  0  0  0  0  0  0  0
    3.6360    0.7350   -0.0690 C   0  0  0  0  0  0  0  0  0  0  0  0
    1.4790   -0.6770   -1.7800 C   0  0  0  0  0  0  0  0  0  0  0  0
    0.2440   -1.5110   -2.1270 C   0  0  0  0  0  0  0  0  0  0  0  0
   -0.3910   -1.7230    0.2960 C   0  0  0  0  0  0  0  0  0  0  0  0
   -1.9630   -0.7680   -1.3350 C   0  0  0  0  0  0  0  0  0  0  0  0
   -4.8880   -0.6140    1.7410 C   0  0  0  0  0  0  0  0  0  0  0  0
   -5.5140    1.6910    1.1670 C   0  0  0  0  0  0  0  0  0  0  0  0
   -4.3950    2.7640   -0.6640 C   0  0  0  0  0  0  0  0  0  0  0  0
   -2.2070   -0.3500   -2.4500 O   0  0  0  0  0  0  0  0  0  0  0  0
   -2.9840   -0.6800   -0.2750 C   0  0  0  0  0  0  0  0  0  0  0  0
   -3.7790    0.5340   -0.0880 C   0  0  0  0  0  0  0  0  0  0  0  0
   -3.6200    1.6640   -0.8920 C   0  0  0  0  0  0  0  0  0  0  0  0
   -5.3270    2.7810    0.3710 C   0  0  0  0  0  0  0  0  0  0  0  0
   -4.7420    0.5390    0.9540 C   0  0  0  0  0  0  0  0  0  0  0  0
   -4.1500   -1.6770    1.5240 N   0  0  0  0  0  0  0  0  0  0  0  0
   -3.2310   -1.7500    0.5760 C   0  0  0  0  0  0  0  0  0  0  0  0
    1.0230   -1.2880    0.5710 C   0  0  0  0  0  0  0  0  0  0  0  0
    1.4280   -1.3280    1.7130 O   0  0  0  0  0  0  0  0  0  0  0  0
    1.8510   -0.8620   -0.3840 N   0  0  0  0  0  0  0  0  0  0  0  0
    4.9410    1.0160    0.2870 C   0  0  0  0  0  0  0  0  0  0  0  0
    5.5240    2.6500    0.2240 Cl  0  0  0  0  0  0  0  0  0  0  0  0
    4.0190   -1.5930    0.3900 C   0  0  0  0  0  0  0  0  0  0  0  0
    5.3230   -1.3060    0.7440 C   0  0  0  0  0  0  0  0  0  0  0  0
    5.7840   -0.0040    0.6930 C   0  0  0  0  0  0  0  0  0  0  0  0
    2.9780    1.5300   -0.3870 H   0  0  0  0  0  0  0  0  0  0  0  0
    2.3090   -0.9830   -2.4160 H   0  0  0  0  0  0  0  0  0  0  0  0
    1.2610    0.3770   -1.9550 H   0  0  0  0  0  0  0  0  0  0  0  0
    0.5160   -2.5650   -2.1820 H   0  0  0  0  0  0  0  0  0  0  0  0
   -0.1620   -1.1850   -3.0840 H   0  0  0  0  0  0  0  0  0  0  0  0
   -1.0640   -1.2530    1.0130 H   0  0  0  0  0  0  0  0  0  0  0  0
   -0.4630   -2.8070    0.3810 H   0  0  0  0  0  0  0  0  0  0  0  0
   -5.6160   -0.6260    2.5390 H   0  0  0  0  0  0  0  0  0  0  0  0
   -6.2520    1.7140    1.9560 H   0  0  0  0  0  0  0  0  0  0  0  0
   -4.2720    3.6400   -1.2850 H   0  0  0  0  0  0  0  0  0  0  0  0
   -2.8890    1.6680   -1.6880 H   0  0  0  0  0  0  0  0  0  0  0  0
   -5.9220    3.6680    0.5350 H   0  0  0  0  0  0  0  0  0  0  0  0
   -2.6630   -2.6610    0.4590 H   0  0  0  0  0  0  0  0  0  0  0  0
    3.6600   -2.6110    0.4310 H   0  0  0  0  0  0  0  0  0  0  0  0
    5.9830   -2.1000    1.0620 H   0  0  0  0  0  0  0  0  0  0  0  0
    6.8040    0.2180    0.9710 H   0  0  0  0  0  0  0  0  0  0  0  0
  8 17  2  0  0  0  0
 17 18  1  0  0  0  0
  8 16  1  0  0  0  0
 12 18  2  0  0  0  0
  9 16  2  0  0  0  0
 13 16  1  0  0  0  0
  9 15  1  0  0  0  0
 12 13  1  0  0  0  0
  7 12  1  0  0  0  0
 13 14  2  0  0  0  0
 10 15  2  0  0  0  0
  7 11  2  0  0  0  0
  1  7  1  0  0  0  0
 22 23  1  0  0  0  0
 10 14  1  0  0  0  0
 19 20  2  0  0  0  0
  1  6  1  0  0  0  0
  1  5  1  0  0  0  0
  6 19  1  0  0  0  0
 19 21  1  0  0  0  0
  3 22  2  0  0  0  0
  2  3  1  0  0  0  0
 22 26  1  0  0  0  0
  4 21  1  0  0  0  0
  2 21  1  0  0  0  0
  4  5  1  0  0  0  0
  2 24  2  0  0  0  0
 25 26  2  0  0  0  0
 24 25  1  0  0  0  0
  3 27  1  0  0  0  0
  4 28  1  0  0  0  0
  4 29  1  0  0  0  0
  5 30  1  0  0  0  0
  5 31  1  0  0  0  0
  6 32  1  0  0  0  0
  6 33  1  0  0  0  0
  8 34  1  0  0  0  0
  9 35  1  0  0  0  0
 10 36  1  0  0  0  0
 14 37  1  0  0  0  0
 15 38  1  0  0  0  0
 18 39  1  0  0  0  0
 24 40  1  0  0  0  0
 25 41  1  0  0  0  0
 26 42  1  0  0  0  0
M  END
> <OPENEYE_ISO_SMILES>
c1ccc2c(c1)cncc2C(=O)N3CCN(C(=O)C3)c4cccc(c4)Cl

> <OPENEYE_INCHI>
InChI=1S/C20H16ClN3O2/c21-15-5-3-6-16(10-15)24-9-8-23(13-19(24)25)20(26)18-12-22-11-14-4-1-2-7-17(14)18/h1-7,10-12H,8-9,13H2

> <OPENEYE_INCHIKEY>
OMBIOAUKLYASJI-UHFFFAOYSA-N

> <FORMULA>
C20H16ClN3O2

$$$$
