OWX
  -OEChem-05102419323D

 37 39  0     0  0  0  0  0  0999 V2000
   -2.6180   -2.4550   -0.5850 N   0  0  0  0  0  0  0  0  0  0  0  0
    2.6260    1.0620    0.1340 C   0  0  0  0  0  0  0  0  0  0  0  0
    1.3230    1.3470    0.8360 C   0  0  0  0  0  0  0  0  0  0  0  0
    0.2700    0.3850    0.3510 C   0  0  0  0  0  0  0  0  0  0  0  0
   -1.9840   -0.3790    0.3270 C   0  0  0  0  0  0  0  0  0  0  0  0
   -1.6810   -1.6660   -0.0980 C   0  0  0  0  0  0  0  0  0  0  0  0
   -4.2520   -0.7880   -0.2880 C   0  0  0  0  0  0  0  0  0  0  0  0
   -3.6490    1.4580    0.6960 C   0  0  0  0  0  0  0  0  0  0  0  0
    3.5210    0.1600    0.6780 C   0  0  0  0  0  0  0  0  0  0  0  0
    0.5490   -0.4500   -0.4830 O   0  0  0  0  0  0  0  0  0  0  0  0
    2.9230    1.6980   -1.0560 C   0  0  0  0  0  0  0  0  0  0  0  0
    4.1180    1.4360   -1.7020 C   0  0  0  0  0  0  0  0  0  0  0  0
    5.0150    0.5380   -1.1560 C   0  0  0  0  0  0  0  0  0  0  0  0
    4.7140   -0.1060    0.0310 C   0  0  0  0  0  0  0  0  0  0  0  0
    5.8390   -1.2390    0.7140 Cl  0  0  0  0  0  0  0  0  0  0  0  0
   -0.9830    0.4530    0.8430 N   0  0  0  0  0  0  0  0  0  0  0  0
   -3.2980    0.0720    0.2330 C   0  0  0  0  0  0  0  0  0  0  0  0
   -4.9650    1.9130    0.0650 C   0  0  0  0  0  0  0  0  0  0  0  0
   -6.0260    0.8290    0.2890 C   0  0  0  0  0  0  0  0  0  0  0  0
   -5.5860   -0.3860   -0.4110 N   0  0  0  0  0  0  0  0  0  0  0  0
   -3.8720   -2.0630   -0.6910 C   0  0  0  0  0  0  0  0  0  0  0  0
    1.4560    1.2280    1.9110 H   0  0  0  0  0  0  0  0  0  0  0  0
    1.0100    2.3690    0.6190 H   0  0  0  0  0  0  0  0  0  0  0  0
   -0.6650   -2.0250   -0.0290 H   0  0  0  0  0  0  0  0  0  0  0  0
   -3.7490    1.4610    1.7810 H   0  0  0  0  0  0  0  0  0  0  0  0
   -2.8530    2.1450    0.4050 H   0  0  0  0  0  0  0  0  0  0  0  0
    3.2890   -0.3370    1.6090 H   0  0  0  0  0  0  0  0  0  0  0  0
    2.2220    2.4000   -1.4830 H   0  0  0  0  0  0  0  0  0  0  0  0
    4.3490    1.9330   -2.6320 H   0  0  0  0  0  0  0  0  0  0  0  0
    5.9480    0.3330   -1.6600 H   0  0  0  0  0  0  0  0  0  0  0  0
   -1.1910    1.0770    1.5560 H   0  0  0  0  0  0  0  0  0  0  0  0
   -5.2910    2.8440    0.5300 H   0  0  0  0  0  0  0  0  0  0  0  0
   -4.8230    2.0710   -1.0040 H   0  0  0  0  0  0  0  0  0  0  0  0
   -6.1250    0.6240    1.3560 H   0  0  0  0  0  0  0  0  0  0  0  0
   -6.9840    1.1600   -0.1120 H   0  0  0  0  0  0  0  0  0  0  0  0
   -6.2090   -0.9000   -0.9490 H   0  0  0  0  0  0  0  0  0  0  0  0
   -4.6110   -2.7380   -1.0960 H   0  0  0  0  0  0  0  0  0  0  0  0
  1 21  2  0  0  0  0
  1  6  1  0  0  0  0
  7 21  1  0  0  0  0
  5  6  2  0  0  0  0
  7 20  1  0  0  0  0
  7 17  2  0  0  0  0
 19 20  1  0  0  0  0
  5 17  1  0  0  0  0
  5 16  1  0  0  0  0
  8 17  1  0  0  0  0
 18 19  1  0  0  0  0
  4 16  1  0  0  0  0
  4 10  2  0  0  0  0
 14 15  1  0  0  0  0
  3  4  1  0  0  0  0
  8 18  1  0  0  0  0
  9 14  2  0  0  0  0
  2  9  1  0  0  0  0
 13 14  1  0  0  0  0
  2  3  1  0  0  0  0
  2 11  2  0  0  0  0
 12 13  2  0  0  0  0
 11 12  1  0  0  0  0
  3 22  1  0  0  0  0
  3 23  1  0  0  0  0
  6 24  1  0  0  0  0
  8 25  1  0  0  0  0
  8 26  1  0  0  0  0
  9 27  1  0  0  0  0
 11 28  1  0  0  0  0
 12 29  1  0  0  0  0
 13 30  1  0  0  0  0
 16 31  1  0  0  0  0
 18 32  1  0  0  0  0
 18 33  1  0  0  0  0
 19 34  1  0  0  0  0
 19 35  1  0  0  0  0
 20 36  1  0  0  0  0
 21 37  1  0  0  0  0
M  END
> <OPENEYE_ISO_SMILES>
c1cc(cc(c1)Cl)CC(=O)Nc2cncc3c2CCCN3

> <OPENEYE_INCHI>
InChI=1S/C16H16ClN3O/c17-12-4-1-3-11(7-12)8-16(21)20-15-10-18-9-14-13(15)5-2-6-19-14/h1,3-4,7,9-10,19H,2,5-6,8H2,(H,20,21)

> <OPENEYE_INCHIKEY>
CVTLEGSZWVPMPP-UHFFFAOYSA-N

> <FORMULA>
C16H16ClN3O

$$$$
