OYF
  -OEChem-05102419323D

 38 41  0     1  0  0  0  0  0999 V2000
    5.6490   -0.2970   -1.4480 N   0  0  0  0  0  0  0  0  0  0  0  0
   -3.5370    2.9520   -0.6240 C   0  0  0  0  0  0  0  0  0  0  0  0
   -2.1160    2.8530   -0.0550 C   0  0  0  0  0  0  0  0  0  0  0  0
   -1.4940    1.5410   -0.5400 C   0  0  1  0  0  0  0  0  0  0  0  0
   -0.2220    1.2760    0.2230 C   0  0  0  0  0  0  0  0  0  0  0  0
    1.9650    0.3520    0.3360 C   0  0  0  0  0  0  0  0  0  0  0  0
    3.3780    0.2620   -1.6910 C   0  0  0  0  0  0  0  0  0  0  0  0
    4.3230   -0.2170    0.4910 C   0  0  0  0  0  0  0  0  0  0  0  0
    1.9050    0.2030    1.7060 C   0  0  0  0  0  0  0  0  0  0  0  0
   -4.1860   -1.7250    0.0900 C   0  0  0  0  0  0  0  0  0  0  0  0
   -0.1450    1.5770    1.3950 O   0  0  0  0  0  0  0  0  0  0  0  0
   -4.3210    1.8980   -0.0640 O   0  0  0  0  0  0  0  0  0  0  0  0
   -4.6700   -0.4330    0.1070 C   0  0  0  0  0  0  0  0  0  0  0  0
   -3.8080    0.6400   -0.0940 C   0  0  0  0  0  0  0  0  0  0  0  0
   -2.4610    0.4070   -0.3130 C   0  0  0  0  0  0  0  0  0  0  0  0
   -1.9800   -0.8920   -0.3270 C   0  0  0  0  0  0  0  0  0  0  0  0
   -2.8390   -1.9560   -0.1260 C   0  0  0  0  0  0  0  0  0  0  0  0
   -2.2270   -3.5810   -0.1450 Cl  0  0  0  0  0  0  0  0  0  0  0  0
    0.8290    0.7050   -0.3970 N   0  0  0  0  0  0  0  0  0  0  0  0
    4.1520   -0.3420    1.8770 C   0  0  0  0  0  0  0  0  0  0  0  0
    2.9730   -0.1310    2.4160 N   0  0  0  0  0  0  0  0  0  0  0  0
    5.5560   -0.4290   -0.1450 C   0  0  0  0  0  0  0  0  0  0  0  0
    4.6180    0.0350   -2.2130 C   0  0  0  0  0  0  0  0  0  0  0  0
    3.2020    0.1400   -0.3060 C   0  0  0  0  0  0  0  0  0  0  0  0
   -3.9730    3.9150   -0.3570 H   0  0  0  0  0  0  0  0  0  0  0  0
   -3.5070    2.8510   -1.7090 H   0  0  0  0  0  0  0  0  0  0  0  0
   -1.5190    3.6950   -0.4080 H   0  0  0  0  0  0  0  0  0  0  0  0
   -2.1550    2.8610    1.0340 H   0  0  0  0  0  0  0  0  0  0  0  0
   -1.2690    1.6180   -1.6040 H   0  0  0  0  0  0  0  0  0  0  0  0
    2.5510    0.5320   -2.3310 H   0  0  0  0  0  0  0  0  0  0  0  0
    0.9650    0.3620    2.2130 H   0  0  0  0  0  0  0  0  0  0  0  0
   -4.8580   -2.5560    0.2460 H   0  0  0  0  0  0  0  0  0  0  0  0
   -5.7210   -0.2550    0.2760 H   0  0  0  0  0  0  0  0  0  0  0  0
   -0.9290   -1.0740   -0.4960 H   0  0  0  0  0  0  0  0  0  0  0  0
    0.7970    0.5390   -1.3520 H   0  0  0  0  0  0  0  0  0  0  0  0
    4.9900   -0.6110    2.5020 H   0  0  0  0  0  0  0  0  0  0  0  0
    6.4250   -0.7010    0.4360 H   0  0  0  0  0  0  0  0  0  0  0  0
    4.7640    0.1270   -3.2790 H   0  0  0  0  0  0  0  0  0  0  0  0
 20 21  2  0  0  0  0
  9 21  1  0  0  0  0
  8 20  1  0  0  0  0
  6  9  2  0  0  0  0
  8 22  2  0  0  0  0
  8 24  1  0  0  0  0
  1 22  1  0  0  0  0
  6 24  1  0  0  0  0
  6 19  1  0  0  0  0
  7 24  2  0  0  0  0
 17 18  1  0  0  0  0
  1 23  2  0  0  0  0
  5 11  2  0  0  0  0
  5 19  1  0  0  0  0
  4  5  1  0  0  0  0
  7 23  1  0  0  0  0
 16 17  2  0  0  0  0
 10 17  1  0  0  0  0
 15 16  1  0  0  0  0
 10 13  2  0  0  0  0
  4 15  1  0  0  0  0
  3  4  1  0  0  0  0
 14 15  2  0  0  0  0
 13 14  1  0  0  0  0
 12 14  1  0  0  0  0
  2  3  1  0  0  0  0
  2 12  1  0  0  0  0
  2 25  1  0  0  0  0
  2 26  1  0  0  0  0
  3 27  1  0  0  0  0
  3 28  1  0  0  0  0
  4 29  1  0  0  0  0
  7 30  1  0  0  0  0
  9 31  1  0  0  0  0
 10 32  1  0  0  0  0
 13 33  1  0  0  0  0
 16 34  1  0  0  0  0
 19 35  1  0  0  0  0
 20 36  1  0  0  0  0
 22 37  1  0  0  0  0
 23 38  1  0  0  0  0
M  END
> <OPENEYE_ISO_SMILES>
c1cc2c(cc1Cl)[C@@H](CCO2)C(=O)Nc3cncc4c3ccnc4

> <OPENEYE_INCHI>
InChI=1S/C18H14ClN3O2/c19-12-1-2-17-15(7-12)14(4-6-24-17)18(23)22-16-10-21-9-11-8-20-5-3-13(11)16/h1-3,5,7-10,14H,4,6H2,(H,22,23)/t14-/m1/s1

> <OPENEYE_INCHIKEY>
KCXBRLJFVUQUIR-CQSZACIVSA-N

> <FORMULA>
C18H14ClN3O2

$$$$
