OYX
  -OEChem-05102419323D

 56 59  0     0  0  0  0  0  0999 V2000
   -0.6630   -0.5530    0.2280 N   0  0  0  0  0  0  0  0  0  0  0  0
    5.3560    0.4640   -1.3950 C   0  0  0  0  0  0  0  0  0  0  0  0
    4.8200    1.2550   -0.3660 C   0  0  0  0  0  0  0  0  0  0  0  0
    5.4270    2.4510    0.0470 C   0  0  0  0  0  0  0  0  0  0  0  0
    4.8630    3.1780    1.0510 C   0  0  0  0  0  0  0  0  0  0  0  0
    3.6930    2.7530    1.6770 C   0  0  0  0  0  0  0  0  0  0  0  0
    3.6280    0.8230    0.2720 C   0  0  0  0  0  0  0  0  0  0  0  0
   -3.3790    2.0250   -0.3570 C   0  0  0  0  0  0  0  0  0  0  0  0
   -4.8600    4.0370   -0.3780 C   0  0  0  0  0  0  0  0  0  0  0  0
   -5.8140    1.7780   -0.8610 C   0  0  0  0  0  0  0  0  0  0  0  0
   -0.9810   -2.9010    0.7550 C   0  0  0  0  0  0  0  0  0  0  0  0
    0.0380   -3.7360    0.5450 C   0  0  0  0  0  0  0  0  0  0  0  0
   -0.3170   -4.9660    0.0170 C   0  0  0  0  0  0  0  0  0  0  0  0
    0.7470    0.5490   -1.0840 O   0  0  0  0  0  0  0  0  0  0  0  0
    0.5840   -0.2460   -0.1820 C   0  0  0  0  0  0  0  0  0  0  0  0
    1.7750   -0.8900    0.4790 C   0  0  0  0  0  0  0  0  0  0  0  0
    3.0410   -0.3800   -0.1600 C   0  0  0  0  0  0  0  0  0  0  0  0
    3.0760    1.5970    1.3030 C   0  0  0  0  0  0  0  0  0  0  0  0
    4.7500   -0.6460   -1.7500 N   0  0  0  0  0  0  0  0  0  0  0  0
    3.6390   -1.0750   -1.1670 C   0  0  0  0  0  0  0  0  0  0  0  0
   -0.8600   -1.5090    1.3210 C   0  0  0  0  0  0  0  0  0  0  0  0
   -2.4850   -3.6690    0.2650 S   0  0  0  0  0  0  0  0  0  0  0  0
   -1.6220   -5.1280   -0.2020 C   0  0  0  0  0  0  0  0  0  0  0  0
   -1.8210    0.0730   -0.4150 C   0  0  0  0  0  0  0  0  0  0  0  0
   -2.1700    1.3710    0.3150 C   0  0  0  0  0  0  0  0  0  0  0  0
   -4.6040    1.1240   -0.1890 C   0  0  0  0  0  0  0  0  0  0  0  0
   -6.0860    3.1360   -0.2100 C   0  0  0  0  0  0  0  0  0  0  0  0
   -3.6510    3.3830    0.2940 C   0  0  0  0  0  0  0  0  0  0  0  0
    6.2610    0.7700   -1.8980 H   0  0  0  0  0  0  0  0  0  0  0  0
    6.3340    2.7930   -0.4290 H   0  0  0  0  0  0  0  0  0  0  0  0
    5.3300    4.0980    1.3680 H   0  0  0  0  0  0  0  0  0  0  0  0
    3.2670    3.3490    2.4710 H   0  0  0  0  0  0  0  0  0  0  0  0
   -3.1730    2.1650   -1.4180 H   0  0  0  0  0  0  0  0  0  0  0  0
   -4.6550    4.1770   -1.4390 H   0  0  0  0  0  0  0  0  0  0  0  0
   -5.0540    5.0040    0.0850 H   0  0  0  0  0  0  0  0  0  0  0  0
   -5.6080    1.9180   -1.9220 H   0  0  0  0  0  0  0  0  0  0  0  0
   -6.6870    1.1360   -0.7410 H   0  0  0  0  0  0  0  0  0  0  0  0
    1.0610   -3.4740    0.7700 H   0  0  0  0  0  0  0  0  0  0  0  0
    0.4100   -5.7350   -0.2020 H   0  0  0  0  0  0  0  0  0  0  0  0
    1.7780   -0.6430    1.5410 H   0  0  0  0  0  0  0  0  0  0  0  0
    1.7170   -1.9720    0.3580 H   0  0  0  0  0  0  0  0  0  0  0  0
    2.1700    1.2790    1.7960 H   0  0  0  0  0  0  0  0  0  0  0  0
    3.1910   -1.9970   -1.5060 H   0  0  0  0  0  0  0  0  0  0  0  0
   -0.0080   -1.4650    1.9990 H   0  0  0  0  0  0  0  0  0  0  0  0
   -1.7710   -1.2570    1.8640 H   0  0  0  0  0  0  0  0  0  0  0  0
   -2.0790   -6.0190   -0.6090 H   0  0  0  0  0  0  0  0  0  0  0  0
   -1.5830    0.2940   -1.4560 H   0  0  0  0  0  0  0  0  0  0  0  0
   -2.6710   -0.6080   -0.3740 H   0  0  0  0  0  0  0  0  0  0  0  0
   -1.3190    2.0510    0.2730 H   0  0  0  0  0  0  0  0  0  0  0  0
   -2.4080    1.1500    1.3550 H   0  0  0  0  0  0  0  0  0  0  0  0
   -4.4100    0.1570   -0.6520 H   0  0  0  0  0  0  0  0  0  0  0  0
   -4.8100    0.9840    0.8720 H   0  0  0  0  0  0  0  0  0  0  0  0
   -6.2910    2.9960    0.8510 H   0  0  0  0  0  0  0  0  0  0  0  0
   -6.9470    3.6020   -0.6890 H   0  0  0  0  0  0  0  0  0  0  0  0
   -3.8570    3.2430    1.3550 H   0  0  0  0  0  0  0  0  0  0  0  0
   -2.7780    4.0240    0.1740 H   0  0  0  0  0  0  0  0  0  0  0  0
  2 19  2  0  0  0  0
 19 20  1  0  0  0  0
  2  3  1  0  0  0  0
 17 20  2  0  0  0  0
  3  4  2  0  0  0  0
  3  7  1  0  0  0  0
  7 17  1  0  0  0  0
 16 17  1  0  0  0  0
  4  5  1  0  0  0  0
  7 18  2  0  0  0  0
 15 16  1  0  0  0  0
 14 15  2  0  0  0  0
  5  6  2  0  0  0  0
  1 15  1  0  0  0  0
  6 18  1  0  0  0  0
 12 13  1  0  0  0  0
 13 23  2  0  0  0  0
 11 12  2  0  0  0  0
 22 23  1  0  0  0  0
  1 24  1  0  0  0  0
  1 21  1  0  0  0  0
 11 21  1  0  0  0  0
 11 22  1  0  0  0  0
 24 25  1  0  0  0  0
  8 25  1  0  0  0  0
  8 26  1  0  0  0  0
 10 26  1  0  0  0  0
  8 28  1  0  0  0  0
  9 28  1  0  0  0  0
 10 27  1  0  0  0  0
  9 27  1  0  0  0  0
  2 29  1  0  0  0  0
  4 30  1  0  0  0  0
  5 31  1  0  0  0  0
  6 32  1  0  0  0  0
  8 33  1  0  0  0  0
  9 34  1  0  0  0  0
  9 35  1  0  0  0  0
 10 36  1  0  0  0  0
 10 37  1  0  0  0  0
 12 38  1  0  0  0  0
 13 39  1  0  0  0  0
 16 40  1  0  0  0  0
 16 41  1  0  0  0  0
 18 42  1  0  0  0  0
 20 43  1  0  0  0  0
 21 44  1  0  0  0  0
 21 45  1  0  0  0  0
 23 46  1  0  0  0  0
 24 47  1  0  0  0  0
 24 48  1  0  0  0  0
 25 49  1  0  0  0  0
 25 50  1  0  0  0  0
 26 51  1  0  0  0  0
 26 52  1  0  0  0  0
 27 53  1  0  0  0  0
 27 54  1  0  0  0  0
 28 55  1  0  0  0  0
 28 56  1  0  0  0  0
M  END
> <OPENEYE_ISO_SMILES>
c1ccc2c(c1)cncc2CC(=O)N(CCC3CCCCC3)Cc4cccs4

> <OPENEYE_INCHI>
InChI=1S/C24H28N2OS/c27-24(15-21-17-25-16-20-9-4-5-11-23(20)21)26(18-22-10-6-14-28-22)13-12-19-7-2-1-3-8-19/h4-6,9-11,14,16-17,19H,1-3,7-8,12-13,15,18H2

> <OPENEYE_INCHIKEY>
COUGPWQMAYMVGH-UHFFFAOYSA-N

> <FORMULA>
C24H28N2OS

$$$$
