OZX
  -OEChem-05102419323D

 33 35  0     0  0  0  0  0  0999 V2000
   -2.5400   -2.4370   -0.2740 N   0  0  0  0  0  0  0  0  0  0  0  0
    2.6150    1.2550    0.2150 C   0  0  0  0  0  0  0  0  0  0  0  0
    1.2750    1.6060    0.8070 C   0  0  0  0  0  0  0  0  0  0  0  0
    0.2610    0.5650    0.4070 C   0  0  0  0  0  0  0  0  0  0  0  0
   -1.9750   -0.2400    0.3780 C   0  0  0  0  0  0  0  0  0  0  0  0
   -1.6420   -1.5580    0.1480 C   0  0  0  0  0  0  0  0  0  0  0  0
   -4.2390   -0.8060   -0.3000 C   0  0  0  0  0  0  0  0  0  0  0  0
   -5.0340    1.8160    0.1270 C   0  0  0  0  0  0  0  0  0  0  0  0
   -3.3090    0.1660    0.1520 C   0  0  0  0  0  0  0  0  0  0  0  0
    0.5950   -0.3700   -0.2900 O   0  0  0  0  0  0  0  0  0  0  0  0
    3.2790    2.1800   -0.5680 C   0  0  0  0  0  0  0  0  0  0  0  0
    4.5130    1.8480   -1.1080 C   0  0  0  0  0  0  0  0  0  0  0  0
    5.0350    0.5930   -0.8390 C   0  0  0  0  0  0  0  0  0  0  0  0
    3.1440    0.0710    0.4560 N   0  0  0  0  0  0  0  0  0  0  0  0
    4.3130   -0.2820   -0.0460 C   0  0  0  0  0  0  0  0  0  0  0  0
    4.9580   -1.8540    0.3050 Cl  0  0  0  0  0  0  0  0  0  0  0  0
   -1.0160    0.6730    0.8230 N   0  0  0  0  0  0  0  0  0  0  0  0
   -3.7330    1.4850    0.3610 C   0  0  0  0  0  0  0  0  0  0  0  0
   -5.9490    0.8630   -0.3170 C   0  0  0  0  0  0  0  0  0  0  0  0
   -5.5700   -0.4280   -0.5310 C   0  0  0  0  0  0  0  0  0  0  0  0
   -3.7930   -2.1220   -0.5010 C   0  0  0  0  0  0  0  0  0  0  0  0
    1.3540    1.6370    1.8930 H   0  0  0  0  0  0  0  0  0  0  0  0
    0.9590    2.5820    0.4370 H   0  0  0  0  0  0  0  0  0  0  0  0
   -0.6260   -1.8820    0.3160 H   0  0  0  0  0  0  0  0  0  0  0  0
   -5.3620    2.8330    0.2880 H   0  0  0  0  0  0  0  0  0  0  0  0
    2.8420    3.1490   -0.7570 H   0  0  0  0  0  0  0  0  0  0  0  0
    5.0540    2.5510   -1.7240 H   0  0  0  0  0  0  0  0  0  0  0  0
    5.9930    0.3010   -1.2430 H   0  0  0  0  0  0  0  0  0  0  0  0
   -1.2690    1.3830    1.4330 H   0  0  0  0  0  0  0  0  0  0  0  0
   -3.0340    2.2330    0.7050 H   0  0  0  0  0  0  0  0  0  0  0  0
   -6.9740    1.1530   -0.4950 H   0  0  0  0  0  0  0  0  0  0  0  0
   -6.2900   -1.1550   -0.8750 H   0  0  0  0  0  0  0  0  0  0  0  0
   -4.4840   -2.8780   -0.8440 H   0  0  0  0  0  0  0  0  0  0  0  0
  1 21  2  0  0  0  0
  1  6  1  0  0  0  0
  7 21  1  0  0  0  0
  5  6  2  0  0  0  0
  7 20  2  0  0  0  0
  7  9  1  0  0  0  0
 19 20  1  0  0  0  0
  5  9  1  0  0  0  0
  5 17  1  0  0  0  0
  9 18  2  0  0  0  0
  4 17  1  0  0  0  0
  8 19  2  0  0  0  0
  4 10  2  0  0  0  0
  3  4  1  0  0  0  0
  8 18  1  0  0  0  0
 15 16  1  0  0  0  0
 14 15  2  0  0  0  0
  2 14  1  0  0  0  0
 13 15  1  0  0  0  0
  2  3  1  0  0  0  0
  2 11  2  0  0  0  0
 12 13  2  0  0  0  0
 11 12  1  0  0  0  0
  3 22  1  0  0  0  0
  3 23  1  0  0  0  0
  6 24  1  0  0  0  0
  8 25  1  0  0  0  0
 11 26  1  0  0  0  0
 12 27  1  0  0  0  0
 13 28  1  0  0  0  0
 17 29  1  0  0  0  0
 18 30  1  0  0  0  0
 19 31  1  0  0  0  0
 20 32  1  0  0  0  0
 21 33  1  0  0  0  0
M  END
> <OPENEYE_ISO_SMILES>
c1ccc2c(c1)cncc2NC(=O)Cc3cccc(n3)Cl

> <OPENEYE_INCHI>
InChI=1S/C16H12ClN3O/c17-15-7-3-5-12(19-15)8-16(21)20-14-10-18-9-11-4-1-2-6-13(11)14/h1-7,9-10H,8H2,(H,20,21)

> <OPENEYE_INCHIKEY>
YZQKBSHQXMHNSJ-UHFFFAOYSA-N

> <FORMULA>
C16H12ClN3O

$$$$
