P0X
  -OEChem-05102419323D

 43 46  0     0  0  0  0  0  0999 V2000
   -0.6920   -1.4450   -1.0200 N   0  0  0  0  0  0  0  0  0  0  0  0
    3.2030   -0.7260    0.1600 C   0  0  0  0  0  0  0  0  0  0  0  0
    3.7750    0.5000   -0.1530 C   0  0  0  0  0  0  0  0  0  0  0  0
    1.6300   -1.1260   -1.6670 C   0  0  0  0  0  0  0  0  0  0  0  0
    0.3610   -1.9410   -1.9220 C   0  0  0  0  0  0  0  0  0  0  0  0
   -0.4500   -1.5570    0.4260 C   0  0  0  0  0  0  0  0  0  0  0  0
   -1.8300   -0.9050   -1.5000 C   0  0  0  0  0  0  0  0  0  0  0  0
   -4.7610   -1.0800    0.9380 C   0  0  0  0  0  0  0  0  0  0  0  0
   -4.5000    2.5520    0.8980 C   0  0  0  0  0  0  0  0  0  0  0  0
   -2.7100    3.2080   -0.5640 C   0  0  0  0  0  0  0  0  0  0  0  0
   -5.4520   -1.9330    1.4670 O   0  0  0  0  0  0  0  0  0  0  0  0
   -3.6930   -1.4840    0.0260 C   0  0  0  0  0  0  0  0  0  0  0  0
   -4.9960    0.2180    1.1980 N   0  0  0  0  0  0  0  0  0  0  0  0
   -4.2410    1.2130    0.6160 C   0  0  0  0  0  0  0  0  0  0  0  0
   -3.1990    0.8860   -0.2700 C   0  0  0  0  0  0  0  0  0  0  0  0
   -2.4380    1.9020   -0.8560 C   0  0  0  0  0  0  0  0  0  0  0  0
   -3.7370    3.5370    0.3100 C   0  0  0  0  0  0  0  0  0  0  0  0
   -2.9220   -0.5270   -0.5710 C   0  0  0  0  0  0  0  0  0  0  0  0
   -1.9610   -0.7280   -2.6950 O   0  0  0  0  0  0  0  0  0  0  0  0
    0.9710   -1.1580    0.7140 C   0  0  0  0  0  0  0  0  0  0  0  0
    1.2950   -0.9600    1.8660 O   0  0  0  0  0  0  0  0  0  0  0  0
    1.8930   -1.0110   -0.2390 N   0  0  0  0  0  0  0  0  0  0  0  0
    5.0710    0.7760    0.2380 C   0  0  0  0  0  0  0  0  0  0  0  0
    5.7880    2.3080   -0.1530 Cl  0  0  0  0  0  0  0  0  0  0  0  0
    3.9360   -1.6710    0.8660 C   0  0  0  0  0  0  0  0  0  0  0  0
    5.2310   -1.3900    1.2550 C   0  0  0  0  0  0  0  0  0  0  0  0
    5.7990   -0.1690    0.9420 C   0  0  0  0  0  0  0  0  0  0  0  0
    3.2080    1.2370   -0.7030 H   0  0  0  0  0  0  0  0  0  0  0  0
    2.4750   -1.6180   -2.1490 H   0  0  0  0  0  0  0  0  0  0  0  0
    1.5070   -0.1290   -2.0910 H   0  0  0  0  0  0  0  0  0  0  0  0
    0.5530   -2.9950   -1.7180 H   0  0  0  0  0  0  0  0  0  0  0  0
    0.0460   -1.8180   -2.9580 H   0  0  0  0  0  0  0  0  0  0  0  0
   -1.1310   -0.8970    0.9630 H   0  0  0  0  0  0  0  0  0  0  0  0
   -0.6130   -2.5870    0.7450 H   0  0  0  0  0  0  0  0  0  0  0  0
   -5.2970    2.8170    1.5770 H   0  0  0  0  0  0  0  0  0  0  0  0
   -2.1210    3.9920   -1.0170 H   0  0  0  0  0  0  0  0  0  0  0  0
   -3.5140   -2.5300   -0.1740 H   0  0  0  0  0  0  0  0  0  0  0  0
   -5.7110    0.4580    1.8070 H   0  0  0  0  0  0  0  0  0  0  0  0
   -1.6370    1.6540   -1.5370 H   0  0  0  0  0  0  0  0  0  0  0  0
   -3.9400    4.5740    0.5310 H   0  0  0  0  0  0  0  0  0  0  0  0
    3.4930   -2.6250    1.1120 H   0  0  0  0  0  0  0  0  0  0  0  0
    5.8010   -2.1250    1.8040 H   0  0  0  0  0  0  0  0  0  0  0  0
    6.8120    0.0490    1.2470 H   0  0  0  0  0  0  0  0  0  0  0  0
  8 11  2  0  0  0  0
  8 13  1  0  0  0  0
  8 12  1  0  0  0  0
 13 14  1  0  0  0  0
 12 18  2  0  0  0  0
  9 14  2  0  0  0  0
 14 15  1  0  0  0  0
  9 17  1  0  0  0  0
 15 18  1  0  0  0  0
  7 18  1  0  0  0  0
 15 16  2  0  0  0  0
  7 19  2  0  0  0  0
 10 17  2  0  0  0  0
  1  7  1  0  0  0  0
 23 24  1  0  0  0  0
 20 21  2  0  0  0  0
 10 16  1  0  0  0  0
  1  6  1  0  0  0  0
  1  5  1  0  0  0  0
  6 20  1  0  0  0  0
 20 22  1  0  0  0  0
  3 23  2  0  0  0  0
  2  3  1  0  0  0  0
 23 27  1  0  0  0  0
  4 22  1  0  0  0  0
  2 22  1  0  0  0  0
  4  5  1  0  0  0  0
  2 25  2  0  0  0  0
 26 27  2  0  0  0  0
 25 26  1  0  0  0  0
  3 28  1  0  0  0  0
  4 29  1  0  0  0  0
  4 30  1  0  0  0  0
  5 31  1  0  0  0  0
  5 32  1  0  0  0  0
  6 33  1  0  0  0  0
  6 34  1  0  0  0  0
  9 35  1  0  0  0  0
 10 36  1  0  0  0  0
 12 37  1  0  0  0  0
 13 38  1  0  0  0  0
 16 39  1  0  0  0  0
 17 40  1  0  0  0  0
 25 41  1  0  0  0  0
 26 42  1  0  0  0  0
 27 43  1  0  0  0  0
M  END
> <OPENEYE_ISO_SMILES>
c1ccc2c(c1)c(cc(=O)[nH]2)C(=O)N3CCN(C(=O)C3)c4cccc(c4)Cl

> <OPENEYE_INCHI>
InChI=1S/C20H16ClN3O3/c21-13-4-3-5-14(10-13)24-9-8-23(12-19(24)26)20(27)16-11-18(25)22-17-7-2-1-6-15(16)17/h1-7,10-11H,8-9,12H2,(H,22,25)

> <OPENEYE_INCHIKEY>
BJJZCSKOWCBJFK-UHFFFAOYSA-N

> <FORMULA>
C20H16ClN3O3

$$$$
