PJ6
  -OEChem-05102419323D

 43 46  0     1  0  0  0  0  0999 V2000
   -3.1430    1.2080   -2.2950 N   0  0  0  0  0  0  0  0  0  0  0  0
    3.3760    0.6260   -0.6050 C   0  0  0  0  0  0  0  0  0  0  0  0
    4.1740   -0.2980   -1.2730 C   0  0  0  0  0  0  0  0  0  0  0  0
    3.9310   -1.6490   -1.1390 C   0  0  0  0  0  0  0  0  0  0  0  0
    2.8930   -2.0890   -0.3370 C   0  0  0  0  0  0  0  0  0  0  0  0
    2.0980   -1.1730    0.3270 C   0  0  0  0  0  0  0  0  0  0  0  0
    0.1370    1.2860    0.1960 C   0  0  0  0  0  0  0  0  0  0  0  0
   -4.2650    0.6180   -1.9540 C   0  0  0  0  0  0  0  0  0  0  0  0
   -5.5180   -0.7740   -0.3650 C   0  0  0  0  0  0  0  0  0  0  0  0
   -4.3970   -1.5760    1.5980 C   0  0  0  0  0  0  0  0  0  0  0  0
   -0.0380    2.2120   -0.5670 O   0  0  0  0  0  0  0  0  0  0  0  0
    1.4460    1.1530    0.9310 C   0  0  1  0  0  0  0  0  0  0  0  0
    2.3380    0.1850    0.1960 C   0  0  0  0  0  0  0  0  0  0  0  0
    2.5880   -3.7890   -0.1650 Cl  0  0  0  0  0  0  0  0  0  0  0  0
    3.6500    1.9480   -0.7580 O   0  0  0  0  0  0  0  0  0  0  0  0
    2.6370    2.8860   -0.3920 C   0  0  0  0  0  0  0  0  0  0  0  0
    2.1240    2.5220    1.0070 C   0  0  0  0  0  0  0  0  0  0  0  0
    1.2020    0.6650    2.2520 O   0  0  0  0  0  0  0  0  0  0  0  0
    0.4450    1.5590    3.0710 C   0  0  0  0  0  0  0  0  0  0  0  0
   -0.8380    0.3750    0.3860 N   0  0  0  0  0  0  0  0  0  0  0  0
   -2.0070    0.4350   -0.3750 C   0  0  0  0  0  0  0  0  0  0  0  0
   -3.1820   -0.2240    0.0510 C   0  0  0  0  0  0  0  0  0  0  0  0
   -3.2340   -0.9610    1.2400 C   0  0  0  0  0  0  0  0  0  0  0  0
   -5.5330   -1.4830    0.7980 C   0  0  0  0  0  0  0  0  0  0  0  0
   -4.3380   -0.1270   -0.7650 C   0  0  0  0  0  0  0  0  0  0  0  0
   -2.0430    1.1400   -1.5600 C   0  0  0  0  0  0  0  0  0  0  0  0
    4.9840    0.0440   -1.8990 H   0  0  0  0  0  0  0  0  0  0  0  0
    4.5520   -2.3640   -1.6600 H   0  0  0  0  0  0  0  0  0  0  0  0
    1.2880   -1.5180    0.9520 H   0  0  0  0  0  0  0  0  0  0  0  0
   -5.1340    0.7050   -2.5900 H   0  0  0  0  0  0  0  0  0  0  0  0
   -6.4070   -0.7100   -0.9750 H   0  0  0  0  0  0  0  0  0  0  0  0
   -4.4370   -2.1450    2.5150 H   0  0  0  0  0  0  0  0  0  0  0  0
    3.0550    3.8930   -0.3800 H   0  0  0  0  0  0  0  0  0  0  0  0
    1.8170    2.8380   -1.1090 H   0  0  0  0  0  0  0  0  0  0  0  0
    1.4040    3.2700    1.3410 H   0  0  0  0  0  0  0  0  0  0  0  0
    2.9600    2.4800    1.7040 H   0  0  0  0  0  0  0  0  0  0  0  0
    1.0160    2.4730    3.2350 H   0  0  0  0  0  0  0  0  0  0  0  0
   -0.4940    1.8020    2.5720 H   0  0  0  0  0  0  0  0  0  0  0  0
    0.2350    1.0850    4.0290 H   0  0  0  0  0  0  0  0  0  0  0  0
   -0.7280   -0.3210    1.0530 H   0  0  0  0  0  0  0  0  0  0  0  0
   -2.3600   -1.0420    1.8690 H   0  0  0  0  0  0  0  0  0  0  0  0
   -6.4420   -1.9800    1.1050 H   0  0  0  0  0  0  0  0  0  0  0  0
   -1.1520    1.6490   -1.8970 H   0  0  0  0  0  0  0  0  0  0  0  0
  1  8  2  0  0  0  0
  1 26  1  0  0  0  0
  8 25  1  0  0  0  0
 21 26  2  0  0  0  0
  9 25  2  0  0  0  0
 22 25  1  0  0  0  0
  9 24  1  0  0  0  0
 21 22  1  0  0  0  0
 20 21  1  0  0  0  0
 22 23  2  0  0  0  0
  7 20  1  0  0  0  0
  5 14  1  0  0  0  0
 10 24  2  0  0  0  0
  7 11  2  0  0  0  0
  7 12  1  0  0  0  0
 10 23  1  0  0  0  0
  5  6  2  0  0  0  0
  6 13  1  0  0  0  0
  4  5  1  0  0  0  0
 12 18  1  0  0  0  0
 18 19  1  0  0  0  0
 12 13  1  0  0  0  0
 12 17  1  0  0  0  0
  2 13  2  0  0  0  0
  3  4  2  0  0  0  0
  2  3  1  0  0  0  0
  2 15  1  0  0  0  0
 16 17  1  0  0  0  0
 15 16  1  0  0  0  0
  3 27  1  0  0  0  0
  4 28  1  0  0  0  0
  6 29  1  0  0  0  0
  8 30  1  0  0  0  0
  9 31  1  0  0  0  0
 10 32  1  0  0  0  0
 16 33  1  0  0  0  0
 16 34  1  0  0  0  0
 17 35  1  0  0  0  0
 17 36  1  0  0  0  0
 19 37  1  0  0  0  0
 19 38  1  0  0  0  0
 19 39  1  0  0  0  0
 20 40  1  0  0  0  0
 23 41  1  0  0  0  0
 24 42  1  0  0  0  0
 26 43  1  0  0  0  0
M  END
> <OPENEYE_ISO_SMILES>
CO[C@]1(CCOc2c1cc(cc2)Cl)C(=O)Nc3cncc4c3cccc4

> <OPENEYE_INCHI>
InChI=1S/C20H17ClN2O3/c1-25-20(8-9-26-18-7-6-14(21)10-16(18)20)19(24)23-17-12-22-11-13-4-2-3-5-15(13)17/h2-7,10-12H,8-9H2,1H3,(H,23,24)/t20-/m0/s1

> <OPENEYE_INCHIKEY>
FRAUGLSYTUOOAF-FQEVSTJZSA-N

> <FORMULA>
C20H17ClN2O3

$$$$
