PJX
  -OEChem-05102419323D

 43 46  0     1  0  0  0  0  0999 V2000
    0.9100   -0.5580    0.3870 N   0  0  0  0  0  0  0  0  0  0  0  0
   -0.0970   -1.3650    0.0010 C   0  0  0  0  0  0  0  0  0  0  0  0
    2.1380   -0.6060   -0.2770 C   0  0  0  0  0  0  0  0  0  0  0  0
    2.2310   -1.1290   -1.5500 C   0  0  0  0  0  0  0  0  0  0  0  0
    4.5100   -0.7380   -1.6830 C   0  0  0  0  0  0  0  0  0  0  0  0
    4.5290   -0.1900   -0.3900 C   0  0  0  0  0  0  0  0  0  0  0  0
    5.6680    0.8210    1.4520 C   0  0  0  0  0  0  0  0  0  0  0  0
    3.3120   -0.1150    0.3360 C   0  0  0  0  0  0  0  0  0  0  0  0
   -1.5790    1.0660    0.1370 C   0  0  0  0  0  0  0  0  0  0  0  0
   -3.6320    2.0890   -0.5490 C   0  0  0  0  0  0  0  0  0  0  0  0
   -1.4630    3.7080   -0.4400 Cl  0  0  0  0  0  0  0  0  0  0  0  0
   -2.2790    2.1850   -0.2730 C   0  0  0  0  0  0  0  0  0  0  0  0
   -4.2760    0.8780   -0.4180 C   0  0  0  0  0  0  0  0  0  0  0  0
   -3.5740   -0.2560   -0.0050 C   0  0  0  0  0  0  0  0  0  0  0  0
   -4.2810   -1.4540    0.0990 N   0  0  2  0  0  0  0  0  0  0  0  0
   -5.6610   -1.2130    0.5440 C   0  0  0  0  0  0  0  0  0  0  0  0
   -2.2230   -0.1540    0.2750 C   0  0  0  0  0  0  0  0  0  0  0  0
   -1.4110   -1.3370    0.7390 C   0  0  1  0  0  0  0  0  0  0  0  0
   -2.1800   -2.6300    0.4610 C   0  0  0  0  0  0  0  0  0  0  0  0
   -3.6190   -2.4400    0.9550 C   0  0  0  0  0  0  0  0  0  0  0  0
    0.0530   -2.1140   -0.9410 O   0  0  0  0  0  0  0  0  0  0  0  0
    3.3060    0.4370    1.6230 C   0  0  0  0  0  0  0  0  0  0  0  0
    4.4720    0.8940    2.1620 C   0  0  0  0  0  0  0  0  0  0  0  0
    5.7110    0.2810    0.2020 C   0  0  0  0  0  0  0  0  0  0  0  0
    3.3860   -1.1770   -2.1970 N   0  0  0  0  0  0  0  0  0  0  0  0
    0.7820    0.0590    1.1250 H   0  0  0  0  0  0  0  0  0  0  0  0
    1.3410   -1.5080   -2.0300 H   0  0  0  0  0  0  0  0  0  0  0  0
    5.4250   -0.8050   -2.2520 H   0  0  0  0  0  0  0  0  0  0  0  0
    6.5770    1.1910    1.9020 H   0  0  0  0  0  0  0  0  0  0  0  0
   -0.5230    1.1420    0.3470 H   0  0  0  0  0  0  0  0  0  0  0  0
   -4.1820    2.9620   -0.8680 H   0  0  0  0  0  0  0  0  0  0  0  0
   -5.3320    0.8050   -0.6350 H   0  0  0  0  0  0  0  0  0  0  0  0
   -6.1880   -0.6270   -0.2090 H   0  0  0  0  0  0  0  0  0  0  0  0
   -6.1690   -2.1670    0.6850 H   0  0  0  0  0  0  0  0  0  0  0  0
   -5.6480   -0.6650    1.4860 H   0  0  0  0  0  0  0  0  0  0  0  0
   -1.2240   -1.2500    1.8100 H   0  0  0  0  0  0  0  0  0  0  0  0
   -2.1810   -2.8350   -0.6100 H   0  0  0  0  0  0  0  0  0  0  0  0
   -1.7130   -3.4590    0.9940 H   0  0  0  0  0  0  0  0  0  0  0  0
   -3.6080   -2.0830    1.9840 H   0  0  0  0  0  0  0  0  0  0  0  0
   -4.1530   -3.3890    0.9000 H   0  0  0  0  0  0  0  0  0  0  0  0
    2.3860    0.5000    2.1840 H   0  0  0  0  0  0  0  0  0  0  0  0
    4.4680    1.3190    3.1550 H   0  0  0  0  0  0  0  0  0  0  0  0
    6.6460    0.2310   -0.3370 H   0  0  0  0  0  0  0  0  0  0  0  0
  5 25  2  0  0  0  0
  4 25  1  0  0  0  0
  5  6  1  0  0  0  0
  3  4  2  0  0  0  0
  6 24  2  0  0  0  0
  6  8  1  0  0  0  0
  7 24  1  0  0  0  0
  3  8  1  0  0  0  0
  1  3  1  0  0  0  0
  8 22  2  0  0  0  0
  1  2  1  0  0  0  0
  7 23  2  0  0  0  0
  2 21  2  0  0  0  0
 11 12  1  0  0  0  0
  2 18  1  0  0  0  0
 22 23  1  0  0  0  0
  9 12  2  0  0  0  0
  9 17  1  0  0  0  0
 10 12  1  0  0  0  0
 17 18  1  0  0  0  0
 18 19  1  0  0  0  0
 14 17  2  0  0  0  0
 10 13  2  0  0  0  0
 19 20  1  0  0  0  0
 13 14  1  0  0  0  0
 14 15  1  0  0  0  0
 15 20  1  0  0  0  0
 15 16  1  0  0  0  0
  1 26  1  0  0  0  0
  4 27  1  0  0  0  0
  5 28  1  0  0  0  0
  7 29  1  0  0  0  0
  9 30  1  0  0  0  0
 10 31  1  0  0  0  0
 13 32  1  0  0  0  0
 16 33  1  0  0  0  0
 16 34  1  0  0  0  0
 16 35  1  0  0  0  0
 18 36  1  0  0  0  0
 19 37  1  0  0  0  0
 19 38  1  0  0  0  0
 20 39  1  0  0  0  0
 20 40  1  0  0  0  0
 22 41  1  0  0  0  0
 23 42  1  0  0  0  0
 24 43  1  0  0  0  0
M  END
> <OPENEYE_ISO_SMILES>
C[N@@]1CC[C@H](c2c1ccc(c2)Cl)C(=O)Nc3cncc4c3cccc4

> <OPENEYE_INCHI>
InChI=1S/C20H18ClN3O/c1-24-9-8-16(17-10-14(21)6-7-19(17)24)20(25)23-18-12-22-11-13-4-2-3-5-15(13)18/h2-7,10-12,16H,8-9H2,1H3,(H,23,25)/t16-/m1/s1

> <OPENEYE_INCHIKEY>
NIZLDWOVHDTVKM-MRXNPFEDSA-N

> <FORMULA>
C20H18ClN3O

$$$$
