PQ6
  -OEChem-05102419323D

 44 47  0     1  0  0  0  0  0999 V2000
    0.6750   -0.3530    0.1270 N   0  0  0  0  0  0  0  0  0  0  0  0
   -3.3180   -0.5140   -0.7250 C   0  0  0  0  0  0  0  0  0  0  0  0
   -4.0170    0.4720   -1.4130 C   0  0  0  0  0  0  0  0  0  0  0  0
   -3.7030    1.8030   -1.2290 C   0  0  0  0  0  0  0  0  0  0  0  0
   -2.6890    2.1590   -0.3570 C   0  0  0  0  0  0  0  0  0  0  0  0
   -1.9910    1.1820    0.3260 C   0  0  0  0  0  0  0  0  0  0  0  0
   -0.1780   -1.3900    0.2430 C   0  0  0  0  0  0  0  0  0  0  0  0
    4.4430   -1.0520   -1.4830 C   0  0  0  0  0  0  0  0  0  0  0  0
    5.3860    0.8500   -0.2480 C   0  0  0  0  0  0  0  0  0  0  0  0
    3.9460    2.1180    1.1920 C   0  0  0  0  0  0  0  0  0  0  0  0
    0.1310   -2.4810   -0.1850 O   0  0  0  0  0  0  0  0  0  0  0  0
   -1.5170   -1.1930    0.9060 C   0  0  1  0  0  0  0  0  0  0  0  0
   -2.3050   -0.1550    0.1470 C   0  0  0  0  0  0  0  0  0  0  0  0
   -2.2900    3.8330   -0.1270 Cl  0  0  0  0  0  0  0  0  0  0  0  0
   -3.6590   -1.8130   -0.9290 O   0  0  0  0  0  0  0  0  0  0  0  0
   -2.7270   -2.8190   -0.5310 C   0  0  0  0  0  0  0  0  0  0  0  0
   -2.2770   -2.5200    0.9050 C   0  0  0  0  0  0  0  0  0  0  0  0
   -1.3080   -0.7200    2.3460 C   0  0  0  0  0  0  0  0  0  0  0  0
   -0.6510   -1.7830    3.1200 N   0  0  0  0  0  0  0  0  0  0  0  0
    1.9530   -0.5570   -0.3970 C   0  0  0  0  0  0  0  0  0  0  0  0
    3.0290    0.2820   -0.0260 C   0  0  0  0  0  0  0  0  0  0  0  0
    2.8710    1.3440    0.8720 C   0  0  0  0  0  0  0  0  0  0  0  0
    5.1950    1.8810    0.6210 C   0  0  0  0  0  0  0  0  0  0  0  0
    4.3040    0.0250   -0.5920 C   0  0  0  0  0  0  0  0  0  0  0  0
    3.4060   -1.7970   -1.7830 N   0  0  0  0  0  0  0  0  0  0  0  0
    2.1980   -1.5870   -1.2800 C   0  0  0  0  0  0  0  0  0  0  0  0
    0.4000    0.5350    0.4040 H   0  0  0  0  0  0  0  0  0  0  0  0
   -4.8080    0.1950   -2.0940 H   0  0  0  0  0  0  0  0  0  0  0  0
   -4.2480    2.5660   -1.7650 H   0  0  0  0  0  0  0  0  0  0  0  0
   -1.2000    1.4620    1.0050 H   0  0  0  0  0  0  0  0  0  0  0  0
    5.4050   -1.2640   -1.9250 H   0  0  0  0  0  0  0  0  0  0  0  0
    6.3640    0.6690   -0.6700 H   0  0  0  0  0  0  0  0  0  0  0  0
    3.8250    2.9380    1.8850 H   0  0  0  0  0  0  0  0  0  0  0  0
   -3.2040   -3.7990   -0.5700 H   0  0  0  0  0  0  0  0  0  0  0  0
   -1.8640   -2.8050   -1.1970 H   0  0  0  0  0  0  0  0  0  0  0  0
   -1.6240   -3.3180    1.2590 H   0  0  0  0  0  0  0  0  0  0  0  0
   -3.1500   -2.4450    1.5530 H   0  0  0  0  0  0  0  0  0  0  0  0
   -0.6810    0.1710    2.3490 H   0  0  0  0  0  0  0  0  0  0  0  0
   -2.2730   -0.4880    2.7960 H   0  0  0  0  0  0  0  0  0  0  0  0
    0.2280   -2.0450    2.6990 H   0  0  0  0  0  0  0  0  0  0  0  0
   -0.5230   -1.5040    4.0810 H   0  0  0  0  0  0  0  0  0  0  0  0
    1.9040    1.5480    1.3090 H   0  0  0  0  0  0  0  0  0  0  0  0
    6.0280    2.5150    0.8850 H   0  0  0  0  0  0  0  0  0  0  0  0
    1.3860   -2.2370   -1.5690 H   0  0  0  0  0  0  0  0  0  0  0  0
  8 25  2  0  0  0  0
 25 26  1  0  0  0  0
  8 24  1  0  0  0  0
 20 26  2  0  0  0  0
  9 24  2  0  0  0  0
 21 24  1  0  0  0  0
  9 23  1  0  0  0  0
 20 21  1  0  0  0  0
  1 20  1  0  0  0  0
 21 22  2  0  0  0  0
 10 23  2  0  0  0  0
  7 11  2  0  0  0  0
  5 14  1  0  0  0  0
  1  7  1  0  0  0  0
  7 12  1  0  0  0  0
 10 22  1  0  0  0  0
  5  6  2  0  0  0  0
  4  5  1  0  0  0  0
  6 13  1  0  0  0  0
 18 19  1  0  0  0  0
 12 18  1  0  0  0  0
  3  4  2  0  0  0  0
 12 13  1  0  0  0  0
 12 17  1  0  0  0  0
  2 13  2  0  0  0  0
  2  3  1  0  0  0  0
  2 15  1  0  0  0  0
 16 17  1  0  0  0  0
 15 16  1  0  0  0  0
  1 27  1  0  0  0  0
  3 28  1  0  0  0  0
  4 29  1  0  0  0  0
  6 30  1  0  0  0  0
  8 31  1  0  0  0  0
  9 32  1  0  0  0  0
 10 33  1  0  0  0  0
 16 34  1  0  0  0  0
 16 35  1  0  0  0  0
 17 36  1  0  0  0  0
 17 37  1  0  0  0  0
 18 38  1  0  0  0  0
 18 39  1  0  0  0  0
 19 40  1  0  0  0  0
 19 41  1  0  0  0  0
 22 42  1  0  0  0  0
 23 43  1  0  0  0  0
 26 44  1  0  0  0  0
M  END
> <OPENEYE_ISO_SMILES>
c1ccc2c(c1)cncc2NC(=O)[C@@]3(CCOc4c3cc(cc4)Cl)CN

> <OPENEYE_INCHI>
InChI=1S/C20H18ClN3O2/c21-14-5-6-18-16(9-14)20(12-22,7-8-26-18)19(25)24-17-11-23-10-13-3-1-2-4-15(13)17/h1-6,9-11H,7-8,12,22H2,(H,24,25)/t20-/m0/s1

> <OPENEYE_INCHIKEY>
ILSGMAUMNXSNQB-FQEVSTJZSA-N

> <FORMULA>
C20H18ClN3O2

$$$$
