PUU
  -OEChem-05102419323D

 45 48  0     1  0  0  0  0  0999 V2000
    1.3370   -0.5680    0.4280 N   0  0  0  0  0  0  0  0  0  0  0  0
   -1.0510   -1.1050    0.7910 C   0  0  1  0  0  0  0  0  0  0  0  0
    0.2400   -1.2400    0.0250 C   0  0  0  0  0  0  0  0  0  0  0  0
    2.5570   -0.7680   -0.2220 C   0  0  0  0  0  0  0  0  0  0  0  0
    2.6170   -1.4630   -1.4110 C   0  0  0  0  0  0  0  0  0  0  0  0
    4.9140   -1.2190   -1.5860 C   0  0  0  0  0  0  0  0  0  0  0  0
    6.1730   -0.0070    0.1400 C   0  0  0  0  0  0  0  0  0  0  0  0
    3.7860    0.4620    1.5220 C   0  0  0  0  0  0  0  0  0  0  0  0
   -1.7530    0.1560    0.3630 C   0  0  0  0  0  0  0  0  0  0  0  0
   -1.6150    2.4670   -0.2710 C   0  0  0  0  0  0  0  0  0  0  0  0
   -3.1290    0.2020    0.2090 C   0  0  0  0  0  0  0  0  0  0  0  0
   -0.6610    3.8860   -0.5740 Cl  0  0  0  0  0  0  0  0  0  0  0  0
   -0.9990    1.2930    0.1190 C   0  0  0  0  0  0  0  0  0  0  0  0
   -2.9900    2.5130   -0.4230 C   0  0  0  0  0  0  0  0  0  0  0  0
   -3.7470    1.3850   -0.1830 C   0  0  0  0  0  0  0  0  0  0  0  0
   -3.9160   -0.9350    0.4400 N   0  0  0  0  0  0  0  0  0  0  0  0
   -5.2010   -0.9730    0.0360 C   0  0  0  0  0  0  0  0  0  0  0  0
   -5.7050    0.0050   -0.4770 O   0  0  0  0  0  0  0  0  0  0  0  0
   -6.0130   -2.2290    0.2210 C   0  0  0  0  0  0  0  0  0  0  0  0
   -1.9290   -2.3260    0.5180 C   0  0  0  0  0  0  0  0  0  0  0  0
   -3.3160   -2.0860    1.1290 C   0  0  0  0  0  0  0  0  0  0  0  0
    0.2920   -1.9540   -0.9540 O   0  0  0  0  0  0  0  0  0  0  0  0
    3.7570   -0.2590    0.3220 C   0  0  0  0  0  0  0  0  0  0  0  0
    4.9750    0.9280    1.9960 C   0  0  0  0  0  0  0  0  0  0  0  0
    6.1640    0.6910    1.3100 C   0  0  0  0  0  0  0  0  0  0  0  0
    4.9650   -0.4940   -0.3840 C   0  0  0  0  0  0  0  0  0  0  0  0
    3.7650   -1.6580   -2.0440 N   0  0  0  0  0  0  0  0  0  0  0  0
    1.2780    0.0580    1.1670 H   0  0  0  0  0  0  0  0  0  0  0  0
   -0.8310   -1.0510    1.8570 H   0  0  0  0  0  0  0  0  0  0  0  0
    1.7070   -1.8570   -1.8380 H   0  0  0  0  0  0  0  0  0  0  0  0
    5.8230   -1.4160   -2.1350 H   0  0  0  0  0  0  0  0  0  0  0  0
    7.1020   -0.1840   -0.3810 H   0  0  0  0  0  0  0  0  0  0  0  0
    2.8710    0.6530    2.0630 H   0  0  0  0  0  0  0  0  0  0  0  0
    0.0740    1.2610    0.2360 H   0  0  0  0  0  0  0  0  0  0  0  0
   -3.4700    3.4310   -0.7280 H   0  0  0  0  0  0  0  0  0  0  0  0
   -4.8200    1.4190   -0.3000 H   0  0  0  0  0  0  0  0  0  0  0  0
   -5.4310   -2.9580    0.7850 H   0  0  0  0  0  0  0  0  0  0  0  0
   -6.9270   -1.9930    0.7670 H   0  0  0  0  0  0  0  0  0  0  0  0
   -6.2680   -2.6440   -0.7540 H   0  0  0  0  0  0  0  0  0  0  0  0
   -2.0240   -2.4750   -0.5570 H   0  0  0  0  0  0  0  0  0  0  0  0
   -1.4780   -3.2090    0.9720 H   0  0  0  0  0  0  0  0  0  0  0  0
   -3.2180   -1.8690    2.1930 H   0  0  0  0  0  0  0  0  0  0  0  0
   -3.9400   -2.9680    0.9870 H   0  0  0  0  0  0  0  0  0  0  0  0
    4.9970    1.4920    2.9170 H   0  0  0  0  0  0  0  0  0  0  0  0
    7.0940    1.0640    1.7120 H   0  0  0  0  0  0  0  0  0  0  0  0
  6 27  2  0  0  0  0
  5 27  1  0  0  0  0
  6 26  1  0  0  0  0
  4  5  2  0  0  0  0
  7 26  2  0  0  0  0
 23 26  1  0  0  0  0
  7 25  1  0  0  0  0
  4 23  1  0  0  0  0
  1  4  1  0  0  0  0
  8 23  2  0  0  0  0
  1  3  1  0  0  0  0
 24 25  2  0  0  0  0
 10 12  1  0  0  0  0
  3 22  2  0  0  0  0
  2  3  1  0  0  0  0
  8 24  1  0  0  0  0
 10 13  2  0  0  0  0
  9 13  1  0  0  0  0
 10 14  1  0  0  0  0
  2  9  1  0  0  0  0
  2 20  1  0  0  0  0
  9 11  2  0  0  0  0
 14 15  2  0  0  0  0
 11 15  1  0  0  0  0
 11 16  1  0  0  0  0
 17 19  1  0  0  0  0
 20 21  1  0  0  0  0
 16 17  1  0  0  0  0
 16 21  1  0  0  0  0
 17 18  2  0  0  0  0
  1 28  1  0  0  0  0
  2 29  1  0  0  0  0
  5 30  1  0  0  0  0
  6 31  1  0  0  0  0
  7 32  1  0  0  0  0
  8 33  1  0  0  0  0
 13 34  1  0  0  0  0
 14 35  1  0  0  0  0
 15 36  1  0  0  0  0
 19 37  1  0  0  0  0
 19 38  1  0  0  0  0
 19 39  1  0  0  0  0
 20 40  1  0  0  0  0
 20 41  1  0  0  0  0
 21 42  1  0  0  0  0
 21 43  1  0  0  0  0
 24 44  1  0  0  0  0
 25 45  1  0  0  0  0
M  END
> <OPENEYE_ISO_SMILES>
CC(=O)N1CC[C@H](c2c1ccc(c2)Cl)C(=O)Nc3cncc4c3cccc4

> <OPENEYE_INCHI>
InChI=1S/C21H18ClN3O2/c1-13(26)25-9-8-17(18-10-15(22)6-7-20(18)25)21(27)24-19-12-23-11-14-4-2-3-5-16(14)19/h2-7,10-12,17H,8-9H2,1H3,(H,24,27)/t17-/m1/s1

> <OPENEYE_INCHIKEY>
OYAZCEPXBNBUAT-QGZVFWFLSA-N

> <FORMULA>
C21H18ClN3O2

$$$$
