PVR
  -OEChem-05102419323D

 44 46  0     0  0  0  0  0  0999 V2000
   -1.8460   -0.7170   -0.2030 N   0  0  0  0  0  0  0  0  0  0  0  0
    3.5250    2.6410   -0.0980 N   0  0  0  0  0  0  0  0  0  0  0  0
   -0.5760   -1.2330    0.3270 C   0  0  0  0  0  0  0  0  0  0  0  0
    0.5130   -0.2160    0.1000 C   0  0  0  0  0  0  0  0  0  0  0  0
    2.8020    0.4250    0.2100 C   0  0  0  0  0  0  0  0  0  0  0  0
    2.5570    1.7910    0.1810 C   0  0  0  0  0  0  0  0  0  0  0  0
    4.7520    2.2360   -0.3590 C   0  0  0  0  0  0  0  0  0  0  0  0
    4.0870   -0.0380   -0.0610 C   0  0  0  0  0  0  0  0  0  0  0  0
    5.4550   -1.9980    0.9520 C   0  0  0  0  0  0  0  0  0  0  0  0
   -4.1210   -1.2430   -0.9390 C   0  0  0  0  0  0  0  0  0  0  0  0
    0.2570    0.8350   -0.4480 O   0  0  0  0  0  0  0  0  0  0  0  0
    1.7710   -0.4750    0.5070 N   0  0  0  0  0  0  0  0  0  0  0  0
    4.3970   -1.5120   -0.0410 C   0  0  0  0  0  0  0  0  0  0  0  0
    5.7740   -1.9520   -0.5440 C   0  0  0  0  0  0  0  0  0  0  0  0
    5.0730    0.8910   -0.3500 C   0  0  0  0  0  0  0  0  0  0  0  0
   -2.2930    0.4590    0.5540 C   0  0  0  0  0  0  0  0  0  0  0  0
   -3.5160    1.0720   -0.1360 C   0  0  0  0  0  0  0  0  0  0  0  0
   -2.8750   -1.7650   -0.2170 C   0  0  0  0  0  0  0  0  0  0  0  0
   -4.5300    0.0220   -0.3100 N   0  0  0  0  0  0  0  0  0  0  0  0
   -5.8010    0.2130    0.0960 C   0  0  0  0  0  0  0  0  0  0  0  0
   -6.6000   -0.6970    0.0390 O   0  0  0  0  0  0  0  0  0  0  0  0
   -6.2290    1.5590    0.6210 C   0  0  0  0  0  0  0  0  0  0  0  0
   -0.6790   -1.4240    1.3950 H   0  0  0  0  0  0  0  0  0  0  0  0
   -0.3190   -2.1610   -0.1850 H   0  0  0  0  0  0  0  0  0  0  0  0
    1.5640    2.1610    0.3900 H   0  0  0  0  0  0  0  0  0  0  0  0
    5.5170    2.9640   -0.5840 H   0  0  0  0  0  0  0  0  0  0  0  0
    5.9270   -1.2520    1.5900 H   0  0  0  0  0  0  0  0  0  0  0  0
    5.3080   -2.9790    1.4040 H   0  0  0  0  0  0  0  0  0  0  0  0
   -3.8900   -1.0710   -1.9900 H   0  0  0  0  0  0  0  0  0  0  0  0
   -4.9280   -1.9710   -0.8560 H   0  0  0  0  0  0  0  0  0  0  0  0
    1.9630   -1.2840    1.0070 H   0  0  0  0  0  0  0  0  0  0  0  0
    3.5530   -2.1730   -0.2410 H   0  0  0  0  0  0  0  0  0  0  0  0
    6.4550   -1.1740   -0.8890 H   0  0  0  0  0  0  0  0  0  0  0  0
    5.8360   -2.9010   -1.0750 H   0  0  0  0  0  0  0  0  0  0  0  0
    6.0810    0.5680   -0.5650 H   0  0  0  0  0  0  0  0  0  0  0  0
   -2.5600    0.1590    1.5680 H   0  0  0  0  0  0  0  0  0  0  0  0
   -1.4900    1.1940    0.5920 H   0  0  0  0  0  0  0  0  0  0  0  0
   -3.9210    1.8740    0.4810 H   0  0  0  0  0  0  0  0  0  0  0  0
   -3.2270    1.4670   -1.1100 H   0  0  0  0  0  0  0  0  0  0  0  0
   -2.4930   -2.6430   -0.7380 H   0  0  0  0  0  0  0  0  0  0  0  0
   -3.1340   -2.0340    0.8070 H   0  0  0  0  0  0  0  0  0  0  0  0
   -5.3640    2.2200    0.6780 H   0  0  0  0  0  0  0  0  0  0  0  0
   -6.9730    1.9910   -0.0490 H   0  0  0  0  0  0  0  0  0  0  0  0
   -6.6620    1.4410    1.6150 H   0  0  0  0  0  0  0  0  0  0  0  0
  2  7  2  0  0  0  0
  2  6  1  0  0  0  0
  7 15  1  0  0  0  0
  5  6  2  0  0  0  0
  8 15  2  0  0  0  0
  5  8  1  0  0  0  0
  5 12  1  0  0  0  0
  8 13  1  0  0  0  0
  4 12  1  0  0  0  0
  4 11  2  0  0  0  0
  3  4  1  0  0  0  0
  9 13  1  0  0  0  0
 13 14  1  0  0  0  0
  1  3  1  0  0  0  0
  9 14  1  0  0  0  0
  1 18  1  0  0  0  0
  1 16  1  0  0  0  0
 10 18  1  0  0  0  0
 16 17  1  0  0  0  0
 10 19  1  0  0  0  0
 17 19  1  0  0  0  0
 19 20  1  0  0  0  0
 20 22  1  0  0  0  0
 20 21  2  0  0  0  0
  3 23  1  0  0  0  0
  3 24  1  0  0  0  0
  6 25  1  0  0  0  0
  7 26  1  0  0  0  0
  9 27  1  0  0  0  0
  9 28  1  0  0  0  0
 10 29  1  0  0  0  0
 10 30  1  0  0  0  0
 12 31  1  0  0  0  0
 13 32  1  0  0  0  0
 14 33  1  0  0  0  0
 14 34  1  0  0  0  0
 15 35  1  0  0  0  0
 16 36  1  0  0  0  0
 16 37  1  0  0  0  0
 17 38  1  0  0  0  0
 17 39  1  0  0  0  0
 18 40  1  0  0  0  0
 18 41  1  0  0  0  0
 22 42  1  0  0  0  0
 22 43  1  0  0  0  0
 22 44  1  0  0  0  0
M  END
> <OPENEYE_ISO_SMILES>
CC(=O)N1CCN(CC1)CC(=O)Nc2cnccc2C3CC3

> <OPENEYE_INCHI>
InChI=1S/C16H22N4O2/c1-12(21)20-8-6-19(7-9-20)11-16(22)18-15-10-17-5-4-14(15)13-2-3-13/h4-5,10,13H,2-3,6-9,11H2,1H3,(H,18,22)

> <OPENEYE_INCHIKEY>
QSGGZCHNCXCCMN-UHFFFAOYSA-N

> <FORMULA>
C16H22N4O2

$$$$
