PWR
  -OEChem-05102419323D

 40 43  0     1  0  0  0  0  0999 V2000
    0.5610   -0.3940    0.6520 N   0  0  0  0  0  0  0  0  0  0  0  0
   -2.3660   -2.6760    0.8960 C   0  0  0  0  0  0  0  0  0  0  0  0
   -3.8270   -2.5590    1.3460 C   0  0  0  0  0  0  0  0  0  0  0  0
   -3.9320   -0.4970    0.1470 C   0  0  0  0  0  0  0  0  0  0  0  0
   -4.7180    0.4980   -0.4260 C   0  0  0  0  0  0  0  0  0  0  0  0
   -4.1670    1.7220   -0.7420 C   0  0  0  0  0  0  0  0  0  0  0  0
   -2.0450    0.9770    0.0790 C   0  0  0  0  0  0  0  0  0  0  0  0
    2.8430    0.8790    1.8450 C   0  0  0  0  0  0  0  0  0  0  0  0
    5.1800    1.4010    1.7030 C   0  0  0  0  0  0  0  0  0  0  0  0
    4.1720    0.1410   -0.0600 C   0  0  0  0  0  0  0  0  0  0  0  0
   -2.1320    3.5030   -0.8910 Cl  0  0  0  0  0  0  0  0  0  0  0  0
   -2.8280    1.9630   -0.4910 C   0  0  0  0  0  0  0  0  0  0  0  0
   -2.5940   -0.2530    0.4010 C   0  0  0  0  0  0  0  0  0  0  0  0
   -4.5100   -1.6910    0.4400 O   0  0  0  0  0  0  0  0  0  0  0  0
   -1.7100   -1.3000    1.0290 C   0  0  2  0  0  0  0  0  0  0  0  0
   -0.3730   -1.3110    0.3330 C   0  0  0  0  0  0  0  0  0  0  0  0
   -0.1390   -2.1470   -0.5150 O   0  0  0  0  0  0  0  0  0  0  0  0
    1.8100   -0.4240    0.0290 C   0  0  0  0  0  0  0  0  0  0  0  0
    1.9810   -1.0660   -1.1790 C   0  0  0  0  0  0  0  0  0  0  0  0
    2.9280    0.2050    0.6210 C   0  0  0  0  0  0  0  0  0  0  0  0
    4.2370   -0.5450   -1.2830 C   0  0  0  0  0  0  0  0  0  0  0  0
    3.1600   -1.1050   -1.7850 N   0  3  0  0  0  0  0  0  0  0  0  0
    3.2650   -1.7880   -3.0200 O   0  5  0  0  0  0  0  0  0  0  0  0
    5.3000    0.7480    0.5130 C   0  0  0  0  0  0  0  0  0  0  0  0
    3.9580    1.4660    2.3670 C   0  0  0  0  0  0  0  0  0  0  0  0
    0.3640    0.2900    1.3110 H   0  0  0  0  0  0  0  0  0  0  0  0
   -1.8430   -3.3950    1.5270 H   0  0  0  0  0  0  0  0  0  0  0  0
   -2.3260   -3.0030   -0.1430 H   0  0  0  0  0  0  0  0  0  0  0  0
   -4.2950   -3.5430    1.3350 H   0  0  0  0  0  0  0  0  0  0  0  0
   -3.8690   -2.1450    2.3530 H   0  0  0  0  0  0  0  0  0  0  0  0
   -5.7630    0.3110   -0.6240 H   0  0  0  0  0  0  0  0  0  0  0  0
   -4.7800    2.4930   -1.1870 H   0  0  0  0  0  0  0  0  0  0  0  0
   -0.9990    1.1670    0.2740 H   0  0  0  0  0  0  0  0  0  0  0  0
    1.9010    0.9380    2.3700 H   0  0  0  0  0  0  0  0  0  0  0  0
    6.0480    1.8750    2.1390 H   0  0  0  0  0  0  0  0  0  0  0  0
   -1.5660   -1.0670    2.0840 H   0  0  0  0  0  0  0  0  0  0  0  0
    1.1340   -1.5510   -1.6420 H   0  0  0  0  0  0  0  0  0  0  0  0
    5.1770   -0.6170   -1.8110 H   0  0  0  0  0  0  0  0  0  0  0  0
    6.2540    0.7100    0.0080 H   0  0  0  0  0  0  0  0  0  0  0  0
    3.8910    1.9900    3.3090 H   0  0  0  0  0  0  0  0  0  0  0  0
 22 23  1  0  0  0  0
 21 22  2  0  0  0  0
 19 22  1  0  0  0  0
 10 21  1  0  0  0  0
 18 19  2  0  0  0  0
 10 24  2  0  0  0  0
 10 20  1  0  0  0  0
  9 24  1  0  0  0  0
 18 20  1  0  0  0  0
  1 18  1  0  0  0  0
  8 20  2  0  0  0  0
 11 12  1  0  0  0  0
 16 17  2  0  0  0  0
  9 25  2  0  0  0  0
  1 16  1  0  0  0  0
 15 16  1  0  0  0  0
  8 25  1  0  0  0  0
  7 12  2  0  0  0  0
  7 13  1  0  0  0  0
  6 12  1  0  0  0  0
 13 15  1  0  0  0  0
  2 15  1  0  0  0  0
  4 13  2  0  0  0  0
  5  6  2  0  0  0  0
  4  5  1  0  0  0  0
  4 14  1  0  0  0  0
  2  3  1  0  0  0  0
  3 14  1  0  0  0  0
  1 26  1  0  0  0  0
  2 27  1  0  0  0  0
  2 28  1  0  0  0  0
  3 29  1  0  0  0  0
  3 30  1  0  0  0  0
  5 31  1  0  0  0  0
  6 32  1  0  0  0  0
  7 33  1  0  0  0  0
  8 34  1  0  0  0  0
  9 35  1  0  0  0  0
 15 36  1  0  0  0  0
 19 37  1  0  0  0  0
 21 38  1  0  0  0  0
 24 39  1  0  0  0  0
 25 40  1  0  0  0  0
M  CHG  2  22   1  23  -1
M  END
> <OPENEYE_ISO_SMILES>
c1ccc2c(c1)c[n+](cc2NC(=O)[C@@H]3CCOc4c3cc(cc4)Cl)[O-]

> <OPENEYE_INCHI>
InChI=1S/C19H15ClN2O3/c20-13-5-6-18-16(9-13)15(7-8-25-18)19(23)21-17-11-22(24)10-12-3-1-2-4-14(12)17/h1-6,9-11,15H,7-8H2,(H,21,23)/t15-/m1/s1

> <OPENEYE_INCHIKEY>
CJFRFTLFKMUSPS-OAHLLOKOSA-N

> <FORMULA>
C19H15ClN2O3

$$$$
