PZ6
  -OEChem-05102419323D

 44 47  0     1  0  0  0  0  0999 V2000
    0.6340   -0.7090   -0.6050 N   0  0  0  0  0  0  0  0  0  0  0  0
   -2.9170   -0.0350    1.2170 C   0  0  0  0  0  0  0  0  0  0  0  0
   -3.2990    1.1940    1.7450 C   0  0  0  0  0  0  0  0  0  0  0  0
   -2.9490    2.3650    1.1030 C   0  0  0  0  0  0  0  0  0  0  0  0
   -2.2160    2.3180   -0.0690 C   0  0  0  0  0  0  0  0  0  0  0  0
   -1.8340    1.0980   -0.5950 C   0  0  0  0  0  0  0  0  0  0  0  0
   -0.2880   -1.6240   -0.2460 C   0  0  0  0  0  0  0  0  0  0  0  0
    4.5830   -1.3080    0.5450 C   0  0  0  0  0  0  0  0  0  0  0  0
    5.0110    1.1110    0.5420 C   0  0  0  0  0  0  0  0  0  0  0  0
    3.2140    2.5980   -0.0160 C   0  0  0  0  0  0  0  0  0  0  0  0
    0.0540   -2.6360    0.3290 O   0  0  0  0  0  0  0  0  0  0  0  0
   -1.7430   -1.3900   -0.5580 C   0  0  2  0  0  0  0  0  0  0  0  0
   -2.1810   -0.0790    0.0450 C   0  0  0  0  0  0  0  0  0  0  0  0
   -1.7770    3.7890   -0.8790 Cl  0  0  0  0  0  0  0  0  0  0  0  0
   -3.2890   -1.1650    1.8720 O   0  0  0  0  0  0  0  0  0  0  0  0
   -2.6050   -2.3780    1.5520 C   0  0  0  0  0  0  0  0  0  0  0  0
   -2.5800   -2.5310    0.0260 C   0  0  0  0  0  0  0  0  0  0  0  0
   -1.9380   -1.3420   -2.0750 C   0  0  0  0  0  0  0  0  0  0  0  0
   -1.5730   -2.6410   -2.6560 N   0  0  0  0  0  0  0  0  0  0  0  0
    1.9670   -0.8730   -0.2230 C   0  0  0  0  0  0  0  0  0  0  0  0
    2.8080    0.2460   -0.0320 C   0  0  0  0  0  0  0  0  0  0  0  0
    2.3550    1.5590   -0.2150 C   0  0  0  0  0  0  0  0  0  0  0  0
    4.5410    2.3740    0.3450 C   0  0  0  0  0  0  0  0  0  0  0  0
    4.1530    0.0160    0.3570 C   0  0  0  0  0  0  0  0  0  0  0  0
    3.7520   -2.3050    0.3580 N   0  0  0  0  0  0  0  0  0  0  0  0
    2.4910   -2.1310   -0.0110 C   0  0  0  0  0  0  0  0  0  0  0  0
    0.3720    0.0620   -1.1330 H   0  0  0  0  0  0  0  0  0  0  0  0
   -3.8710    1.2320    2.6600 H   0  0  0  0  0  0  0  0  0  0  0  0
   -3.2470    3.3170    1.5160 H   0  0  0  0  0  0  0  0  0  0  0  0
   -1.2610    1.0630   -1.5110 H   0  0  0  0  0  0  0  0  0  0  0  0
    5.6030   -1.5050    0.8410 H   0  0  0  0  0  0  0  0  0  0  0  0
    6.0380    0.9530    0.8380 H   0  0  0  0  0  0  0  0  0  0  0  0
    2.8650    3.6110   -0.1570 H   0  0  0  0  0  0  0  0  0  0  0  0
   -1.5850   -2.3350    1.9340 H   0  0  0  0  0  0  0  0  0  0  0  0
   -3.1280   -3.2230    1.9980 H   0  0  0  0  0  0  0  0  0  0  0  0
   -3.5960   -2.4800   -0.3650 H   0  0  0  0  0  0  0  0  0  0  0  0
   -2.1310   -3.4890   -0.2390 H   0  0  0  0  0  0  0  0  0  0  0  0
   -2.9810   -1.1230   -2.3010 H   0  0  0  0  0  0  0  0  0  0  0  0
   -1.3030   -0.5640   -2.4980 H   0  0  0  0  0  0  0  0  0  0  0  0
   -2.2110   -3.3630   -2.3570 H   0  0  0  0  0  0  0  0  0  0  0  0
   -1.5330   -2.5890   -3.6630 H   0  0  0  0  0  0  0  0  0  0  0  0
    1.3340    1.7460   -0.5110 H   0  0  0  0  0  0  0  0  0  0  0  0
    5.2020    3.2150    0.4880 H   0  0  0  0  0  0  0  0  0  0  0  0
    1.8580   -2.9950   -0.1490 H   0  0  0  0  0  0  0  0  0  0  0  0
  8 25  2  0  0  0  0
 25 26  1  0  0  0  0
  8 24  1  0  0  0  0
 20 26  2  0  0  0  0
  9 24  2  0  0  0  0
 21 24  1  0  0  0  0
  9 23  1  0  0  0  0
 20 21  1  0  0  0  0
  1 20  1  0  0  0  0
 21 22  2  0  0  0  0
 10 23  2  0  0  0  0
  7 11  2  0  0  0  0
  1  7  1  0  0  0  0
  7 12  1  0  0  0  0
 10 22  1  0  0  0  0
 12 17  1  0  0  0  0
 16 17  1  0  0  0  0
 12 18  1  0  0  0  0
 12 13  1  0  0  0  0
 18 19  1  0  0  0  0
 15 16  1  0  0  0  0
  6 13  2  0  0  0  0
  2 13  1  0  0  0  0
  2 15  1  0  0  0  0
  5  6  1  0  0  0  0
  2  3  2  0  0  0  0
  5 14  1  0  0  0  0
  4  5  2  0  0  0  0
  3  4  1  0  0  0  0
  1 27  1  0  0  0  0
  3 28  1  0  0  0  0
  4 29  1  0  0  0  0
  6 30  1  0  0  0  0
  8 31  1  0  0  0  0
  9 32  1  0  0  0  0
 10 33  1  0  0  0  0
 16 34  1  0  0  0  0
 16 35  1  0  0  0  0
 17 36  1  0  0  0  0
 17 37  1  0  0  0  0
 18 38  1  0  0  0  0
 18 39  1  0  0  0  0
 19 40  1  0  0  0  0
 19 41  1  0  0  0  0
 22 42  1  0  0  0  0
 23 43  1  0  0  0  0
 26 44  1  0  0  0  0
M  END
> <OPENEYE_ISO_SMILES>
c1ccc2c(c1)cncc2NC(=O)[C@]3(CCOc4c3cc(cc4)Cl)CN

> <OPENEYE_INCHI>
InChI=1S/C20H18ClN3O2/c21-14-5-6-18-16(9-14)20(12-22,7-8-26-18)19(25)24-17-11-23-10-13-3-1-2-4-15(13)17/h1-6,9-11H,7-8,12,22H2,(H,24,25)/t20-/m1/s1

> <OPENEYE_INCHIKEY>
ILSGMAUMNXSNQB-HXUWFJFHSA-N

> <FORMULA>
C20H18ClN3O2

$$$$
