Q1C
  -OEChem-05102419333D

 39 40  0     0  0  0  0  0  0999 V2000
    1.5600    1.0000    0.2110 N   0  0  0  0  0  0  0  0  0  0  0  0
   -0.8820    1.3470    0.3970 C   0  0  0  0  0  0  0  0  0  0  0  0
    0.3240    0.4620    0.2220 C   0  0  0  0  0  0  0  0  0  0  0  0
    2.6850    0.1690    0.1630 C   0  0  0  0  0  0  0  0  0  0  0  0
    2.6160   -1.1380    0.6260 C   0  0  0  0  0  0  0  0  0  0  0  0
    4.8290   -1.5070    0.1010 C   0  0  0  0  0  0  0  0  0  0  0  0
    3.8890    0.6400   -0.3560 C   0  0  0  0  0  0  0  0  0  0  0  0
   -3.4880   -1.0440   -0.8940 C   0  0  0  0  0  0  0  0  0  0  0  0
    0.1840   -0.7360    0.0900 O   0  0  0  0  0  0  0  0  0  0  0  0
   -2.1000    0.5260    0.3730 N   0  0  0  0  0  0  0  0  0  0  0  0
   -3.2730    1.3130    0.7750 C   0  0  0  0  0  0  0  0  0  0  0  0
   -4.4930    0.3950    0.8800 C   0  0  0  0  0  0  0  0  0  0  0  0
   -2.2970   -0.0850   -0.9470 C   0  0  0  0  0  0  0  0  0  0  0  0
   -4.7420   -0.2710   -0.4760 C   0  0  0  0  0  0  0  0  0  0  0  0
   -5.9240   -1.2370   -0.3620 C   0  0  0  0  0  0  0  0  0  0  0  0
    4.0080    2.0500   -0.8740 C   0  0  0  0  0  0  0  0  0  0  0  0
    4.9740   -0.2200   -0.3830 C   0  0  0  0  0  0  0  0  0  0  0  0
    3.6720   -1.9250    0.5770 N   0  0  0  0  0  0  0  0  0  0  0  0
    1.6690    1.9640    0.2330 H   0  0  0  0  0  0  0  0  0  0  0  0
   -0.8140    1.8690    1.3520 H   0  0  0  0  0  0  0  0  0  0  0  0
   -0.9190    2.0760   -0.4130 H   0  0  0  0  0  0  0  0  0  0  0  0
    1.6880   -1.5130    1.0300 H   0  0  0  0  0  0  0  0  0  0  0  0
    5.6720   -2.1820    0.0820 H   0  0  0  0  0  0  0  0  0  0  0  0
   -3.6440   -1.4860   -1.8790 H   0  0  0  0  0  0  0  0  0  0  0  0
   -3.2890   -1.8330   -0.1690 H   0  0  0  0  0  0  0  0  0  0  0  0
   -3.0840    1.7780    1.7430 H   0  0  0  0  0  0  0  0  0  0  0  0
   -3.4640    2.0870    0.0320 H   0  0  0  0  0  0  0  0  0  0  0  0
   -4.3090   -0.3710    1.6330 H   0  0  0  0  0  0  0  0  0  0  0  0
   -5.3670    0.9820    1.1640 H   0  0  0  0  0  0  0  0  0  0  0  0
   -1.4000   -0.6350   -1.2310 H   0  0  0  0  0  0  0  0  0  0  0  0
   -2.4920    0.6960   -1.6830 H   0  0  0  0  0  0  0  0  0  0  0  0
   -4.9660    0.4910   -1.2220 H   0  0  0  0  0  0  0  0  0  0  0  0
   -5.7000   -1.9980    0.3860 H   0  0  0  0  0  0  0  0  0  0  0  0
   -6.8160   -0.6860   -0.0640 H   0  0  0  0  0  0  0  0  0  0  0  0
   -6.0970   -1.7150   -1.3260 H   0  0  0  0  0  0  0  0  0  0  0  0
    4.3140    2.7100   -0.0640 H   0  0  0  0  0  0  0  0  0  0  0  0
    4.7510    2.0830   -1.6710 H   0  0  0  0  0  0  0  0  0  0  0  0
    3.0430    2.3760   -1.2640 H   0  0  0  0  0  0  0  0  0  0  0  0
    5.9260    0.1130   -0.7710 H   0  0  0  0  0  0  0  0  0  0  0  0
  6 18  2  0  0  0  0
  5 18  1  0  0  0  0
  6 17  1  0  0  0  0
  4  5  2  0  0  0  0
  7 17  2  0  0  0  0
  4  7  1  0  0  0  0
  1  4  1  0  0  0  0
  7 16  1  0  0  0  0
  3  9  2  0  0  0  0
  1  3  1  0  0  0  0
  2  3  1  0  0  0  0
  8 13  1  0  0  0  0
 10 13  1  0  0  0  0
  8 14  1  0  0  0  0
  2 10  1  0  0  0  0
 10 11  1  0  0  0  0
 14 15  1  0  0  0  0
 12 14  1  0  0  0  0
 11 12  1  0  0  0  0
  1 19  1  0  0  0  0
  2 20  1  0  0  0  0
  2 21  1  0  0  0  0
  5 22  1  0  0  0  0
  6 23  1  0  0  0  0
  8 24  1  0  0  0  0
  8 25  1  0  0  0  0
 11 26  1  0  0  0  0
 11 27  1  0  0  0  0
 12 28  1  0  0  0  0
 12 29  1  0  0  0  0
 13 30  1  0  0  0  0
 13 31  1  0  0  0  0
 14 32  1  0  0  0  0
 15 33  1  0  0  0  0
 15 34  1  0  0  0  0
 15 35  1  0  0  0  0
 16 36  1  0  0  0  0
 16 37  1  0  0  0  0
 16 38  1  0  0  0  0
 17 39  1  0  0  0  0
M  END
> <OPENEYE_ISO_SMILES>
Cc1ccncc1NC(=O)CN2CCC(CC2)C

> <OPENEYE_INCHI>
InChI=1S/C14H21N3O/c1-11-4-7-17(8-5-11)10-14(18)16-13-9-15-6-3-12(13)2/h3,6,9,11H,4-5,7-8,10H2,1-2H3,(H,16,18)

> <OPENEYE_INCHIKEY>
BZNRCHXVMKBNNF-UHFFFAOYSA-N

> <FORMULA>
C14H21N3O

$$$$
