Q1U
  -OEChem-05102419333D

 38 40  0     0  0  0  0  0  0999 V2000
    0.5530    0.0220    0.8830 N   0  0  0  0  0  0  0  0  0  0  0  0
    3.6880   -1.3220   -0.6020 C   0  0  0  0  0  0  0  0  0  0  0  0
    3.2150   -2.6020   -0.9320 C   0  0  0  0  0  0  0  0  0  0  0  0
    1.1140   -2.1020   -0.0930 C   0  0  0  0  0  0  0  0  0  0  0  0
    1.4740   -0.8340    0.2730 C   0  0  0  0  0  0  0  0  0  0  0  0
   -0.7680   -0.1560    0.6820 C   0  0  0  0  0  0  0  0  0  0  0  0
   -3.1620    0.2910    1.0330 C   0  0  0  0  0  0  0  0  0  0  0  0
   -5.7220   -0.4400    0.2850 C   0  0  0  0  0  0  0  0  0  0  0  0
   -3.7770    0.9230   -0.0320 C   0  0  0  0  0  0  0  0  0  0  0  0
    3.2460    0.8710    0.3640 C   0  0  0  0  0  0  0  0  0  0  0  0
   -5.8300    1.3510   -1.7440 Cl  0  0  0  0  0  0  0  0  0  0  0  0
   -5.0570    0.5580   -0.4070 C   0  0  0  0  0  0  0  0  0  0  0  0
   -5.1060   -1.0710    1.3490 C   0  0  0  0  0  0  0  0  0  0  0  0
   -3.8270   -0.7060    1.7230 C   0  0  0  0  0  0  0  0  0  0  0  0
   -1.7650    0.6840    1.4380 C   0  0  0  0  0  0  0  0  0  0  0  0
   -1.1540   -0.9920   -0.1080 O   0  0  0  0  0  0  0  0  0  0  0  0
    1.9720   -2.9320   -0.6690 N   0  0  0  0  0  0  0  0  0  0  0  0
    2.7970   -0.4090    0.0210 C   0  0  0  0  0  0  0  0  0  0  0  0
    5.0100   -0.9280   -0.8650 C   0  0  0  0  0  0  0  0  0  0  0  0
    5.4220    0.3220   -0.5220 C   0  0  0  0  0  0  0  0  0  0  0  0
    4.5500    1.2260    0.0920 C   0  0  0  0  0  0  0  0  0  0  0  0
    4.9910    2.4670    0.4230 O   0  0  0  0  0  0  0  0  0  0  0  0
    6.3520    2.7750    0.1150 C   0  0  0  0  0  0  0  0  0  0  0  0
    0.8640    0.7410    1.4550 H   0  0  0  0  0  0  0  0  0  0  0  0
    3.8740   -3.3160   -1.4030 H   0  0  0  0  0  0  0  0  0  0  0  0
    0.1050   -2.4380    0.0960 H   0  0  0  0  0  0  0  0  0  0  0  0
   -6.7220   -0.7250   -0.0070 H   0  0  0  0  0  0  0  0  0  0  0  0
   -3.2580    1.7020   -0.5700 H   0  0  0  0  0  0  0  0  0  0  0  0
    2.5780    1.5740    0.8390 H   0  0  0  0  0  0  0  0  0  0  0  0
   -5.6250   -1.8500    1.8880 H   0  0  0  0  0  0  0  0  0  0  0  0
   -3.3460   -1.1990    2.5550 H   0  0  0  0  0  0  0  0  0  0  0  0
   -1.6380    0.5230    2.5080 H   0  0  0  0  0  0  0  0  0  0  0  0
   -1.6020    1.7370    1.2070 H   0  0  0  0  0  0  0  0  0  0  0  0
    5.6960   -1.6140   -1.3390 H   0  0  0  0  0  0  0  0  0  0  0  0
    6.4400    0.6210   -0.7260 H   0  0  0  0  0  0  0  0  0  0  0  0
    7.0100    2.0810    0.6390 H   0  0  0  0  0  0  0  0  0  0  0  0
    6.5110    2.6850   -0.9590 H   0  0  0  0  0  0  0  0  0  0  0  0
    6.5750    3.7940    0.4310 H   0  0  0  0  0  0  0  0  0  0  0  0
  3 17  2  0  0  0  0
  4 17  1  0  0  0  0
  2  3  1  0  0  0  0
  4  5  2  0  0  0  0
  2 19  2  0  0  0  0
  2 18  1  0  0  0  0
 19 20  1  0  0  0  0
  5 18  1  0  0  0  0
  1  5  1  0  0  0  0
 10 18  2  0  0  0  0
 20 21  2  0  0  0  0
  6 16  2  0  0  0  0
 11 12  1  0  0  0  0
  1  6  1  0  0  0  0
  6 15  1  0  0  0  0
 10 21  1  0  0  0  0
 21 22  1  0  0  0  0
  9 12  2  0  0  0  0
  7  9  1  0  0  0  0
  8 12  1  0  0  0  0
  7 15  1  0  0  0  0
  7 14  2  0  0  0  0
 22 23  1  0  0  0  0
  8 13  2  0  0  0  0
 13 14  1  0  0  0  0
  1 24  1  0  0  0  0
  3 25  1  0  0  0  0
  4 26  1  0  0  0  0
  8 27  1  0  0  0  0
  9 28  1  0  0  0  0
 10 29  1  0  0  0  0
 13 30  1  0  0  0  0
 14 31  1  0  0  0  0
 15 32  1  0  0  0  0
 15 33  1  0  0  0  0
 19 34  1  0  0  0  0
 20 35  1  0  0  0  0
 23 36  1  0  0  0  0
 23 37  1  0  0  0  0
 23 38  1  0  0  0  0
M  END
> <OPENEYE_ISO_SMILES>
COc1ccc2cncc(c2c1)NC(=O)Cc3cccc(c3)Cl

> <OPENEYE_INCHI>
InChI=1S/C18H15ClN2O2/c1-23-15-6-5-13-10-20-11-17(16(13)9-15)21-18(22)8-12-3-2-4-14(19)7-12/h2-7,9-11H,8H2,1H3,(H,21,22)

> <OPENEYE_INCHIKEY>
RPTKBNCKDMLWOT-UHFFFAOYSA-N

> <FORMULA>
C18H15ClN2O2

$$$$
