Q2U
  -OEChem-05102419333D

 43 45  0     0  0  0  0  0  0999 V2000
    4.1150    2.0400    0.5710 N   0  0  0  0  0  0  0  0  0  0  0  0
   -5.9370   -0.4670    1.5690 C   0  0  0  0  0  0  0  0  0  0  0  0
   -4.6710   -0.9340    1.2670 C   0  0  0  0  0  0  0  0  0  0  0  0
   -3.9970   -0.4400    0.1610 C   0  0  0  0  0  0  0  0  0  0  0  0
   -2.1990   -1.8900    0.7300 C   0  0  0  0  0  0  0  0  0  0  0  0
   -0.8040   -2.2790    0.2370 C   0  0  0  0  0  0  0  0  0  0  0  0
    2.3150   -0.1030    0.1800 C   0  0  0  0  0  0  0  0  0  0  0  0
    4.6120    0.8430    0.1010 C   0  0  0  0  0  0  0  0  0  0  0  0
    6.4540   -0.5010   -0.6380 C   0  0  0  0  0  0  0  0  0  0  0  0
    4.2620   -1.4570   -0.5900 C   0  0  0  0  0  0  0  0  0  0  0  0
    2.4030    3.2680    1.2540 O   0  0  0  0  0  0  0  0  0  0  0  0
    2.8070    2.1950    0.8410 C   0  0  0  0  0  0  0  0  0  0  0  0
    1.8620    1.0980    0.6440 C   0  0  0  0  0  0  0  0  0  0  0  0
    3.7490   -0.2470   -0.1130 C   0  0  0  0  0  0  0  0  0  0  0  0
    5.5990   -1.5740   -0.8480 C   0  0  0  0  0  0  0  0  0  0  0  0
    5.9700    0.7010   -0.1680 C   0  0  0  0  0  0  0  0  0  0  0  0
    1.3800   -1.2350   -0.0340 C   0  0  0  0  0  0  0  0  0  0  0  0
    1.7760   -2.2600   -0.5520 O   0  0  0  0  0  0  0  0  0  0  0  0
    0.0920   -1.1250    0.3460 N   0  0  0  0  0  0  0  0  0  0  0  0
   -2.7520   -0.8990   -0.1380 O   0  0  0  0  0  0  0  0  0  0  0  0
   -4.5970    0.5250   -0.6420 C   0  0  0  0  0  0  0  0  0  0  0  0
   -3.9390    1.0120   -1.7280 O   0  0  0  0  0  0  0  0  0  0  0  0
   -4.6160    2.0010   -2.5060 C   0  0  0  0  0  0  0  0  0  0  0  0
   -6.5330    0.4920    0.7710 C   0  0  0  0  0  0  0  0  0  0  0  0
   -5.8650    0.9880   -0.3330 C   0  0  0  0  0  0  0  0  0  0  0  0
    4.7210    2.7830    0.7140 H   0  0  0  0  0  0  0  0  0  0  0  0
   -6.4630   -0.8560    2.4290 H   0  0  0  0  0  0  0  0  0  0  0  0
   -4.2080   -1.6830    1.8920 H   0  0  0  0  0  0  0  0  0  0  0  0
   -2.8420   -2.7700    0.7330 H   0  0  0  0  0  0  0  0  0  0  0  0
   -2.1280   -1.4880    1.7410 H   0  0  0  0  0  0  0  0  0  0  0  0
   -0.4190   -3.0970    0.8460 H   0  0  0  0  0  0  0  0  0  0  0  0
   -0.8630   -2.5970   -0.8040 H   0  0  0  0  0  0  0  0  0  0  0  0
    7.5080   -0.6090   -0.8460 H   0  0  0  0  0  0  0  0  0  0  0  0
    3.6030   -2.2960   -0.7560 H   0  0  0  0  0  0  0  0  0  0  0  0
    0.8140    1.2360    0.8650 H   0  0  0  0  0  0  0  0  0  0  0  0
    5.9930   -2.5090   -1.2170 H   0  0  0  0  0  0  0  0  0  0  0  0
    6.6440    1.5300   -0.0090 H   0  0  0  0  0  0  0  0  0  0  0  0
   -0.2420   -0.2830    0.6910 H   0  0  0  0  0  0  0  0  0  0  0  0
   -5.5480    1.5860   -2.8900 H   0  0  0  0  0  0  0  0  0  0  0  0
   -4.8340    2.8680   -1.8830 H   0  0  0  0  0  0  0  0  0  0  0  0
   -3.9820    2.3030   -3.3400 H   0  0  0  0  0  0  0  0  0  0  0  0
   -7.5230    0.8500    1.0090 H   0  0  0  0  0  0  0  0  0  0  0  0
   -6.3330    1.7380   -0.9540 H   0  0  0  0  0  0  0  0  0  0  0  0
 11 12  2  0  0  0  0
  1 12  1  0  0  0  0
 12 13  1  0  0  0  0
  1  8  1  0  0  0  0
  7 13  2  0  0  0  0
  8 16  2  0  0  0  0
  8 14  1  0  0  0  0
  9 16  1  0  0  0  0
  7 14  1  0  0  0  0
  7 17  1  0  0  0  0
 10 14  2  0  0  0  0
 17 18  2  0  0  0  0
 17 19  1  0  0  0  0
  9 15  2  0  0  0  0
  6 19  1  0  0  0  0
 10 15  1  0  0  0  0
  2  3  2  0  0  0  0
  3  4  1  0  0  0  0
  2 24  1  0  0  0  0
  5  6  1  0  0  0  0
  5 20  1  0  0  0  0
  4 20  1  0  0  0  0
  4 21  2  0  0  0  0
 24 25  2  0  0  0  0
 21 25  1  0  0  0  0
 21 22  1  0  0  0  0
 22 23  1  0  0  0  0
  1 26  1  0  0  0  0
  2 27  1  0  0  0  0
  3 28  1  0  0  0  0
  5 29  1  0  0  0  0
  5 30  1  0  0  0  0
  6 31  1  0  0  0  0
  6 32  1  0  0  0  0
  9 33  1  0  0  0  0
 10 34  1  0  0  0  0
 13 35  1  0  0  0  0
 15 36  1  0  0  0  0
 16 37  1  0  0  0  0
 19 38  1  0  0  0  0
 23 39  1  0  0  0  0
 23 40  1  0  0  0  0
 23 41  1  0  0  0  0
 24 42  1  0  0  0  0
 25 43  1  0  0  0  0
M  END
> <OPENEYE_ISO_SMILES>
COc1ccccc1OCCNC(=O)c2cc(=O)[nH]c3c2cccc3

> <OPENEYE_INCHI>
InChI=1S/C19H18N2O4/c1-24-16-8-4-5-9-17(16)25-11-10-20-19(23)14-12-18(22)21-15-7-3-2-6-13(14)15/h2-9,12H,10-11H2,1H3,(H,20,23)(H,21,22)

> <OPENEYE_INCHIKEY>
IOKPKVSTRDCKNE-UHFFFAOYSA-N

> <FORMULA>
C19H18N2O4

$$$$
