Q4R
  -OEChem-05102419333D

 44 46  0     1  0  0  0  0  0999 V2000
    2.5730    1.3120   -0.5460 N   0  0  0  0  0  0  0  0  0  0  0  0
   -2.8570   -0.6640   -1.0010 N   0  0  0  0  0  0  0  0  0  0  0  0
    3.0630   -0.9940   -1.0950 C   0  0  0  0  0  0  0  0  0  0  0  0
    4.8980   -2.0750   -0.2160 C   0  0  0  0  0  0  0  0  0  0  0  0
    5.2800   -0.9480    0.4880 C   0  0  0  0  0  0  0  0  0  0  0  0
    4.5170    0.2040    0.3860 C   0  0  0  0  0  0  0  0  0  0  0  0
    4.9000    1.4530    1.1380 C   0  0  0  0  0  0  0  0  0  0  0  0
   -1.2970   -0.1080    2.2150 C   0  0  0  0  0  0  0  0  0  0  0  0
   -2.1730   -2.2280    0.6620 C   0  0  0  0  0  0  0  0  0  0  0  0
   -3.1800   -2.9770   -1.3600 C   0  0  0  0  0  0  0  0  0  0  0  0
   -2.3070   -0.8970    0.1940 C   0  0  0  0  0  0  0  0  0  0  0  0
   -3.3450    1.9760   -0.0060 O   0  0  0  0  0  0  0  0  0  0  0  0
   -2.0070    1.8260    0.4490 S   0  0  0  0  0  0  0  0  0  0  0  0
   -1.4350    2.6400    1.4630 O   0  0  0  0  0  0  0  0  0  0  0  0
   -1.8540    0.1600    1.0030 C   0  0  0  0  0  0  0  0  0  0  0  0
   -3.2810   -1.6470   -1.7590 C   0  0  0  0  0  0  0  0  0  0  0  0
   -2.6270   -3.2850   -0.1490 C   0  0  0  0  0  0  0  0  0  0  0  0
   -1.5940   -2.4670    1.9190 C   0  0  0  0  0  0  0  0  0  0  0  0
   -1.1660   -1.4180    2.6730 C   0  0  0  0  0  0  0  0  0  0  0  0
   -1.0390    1.9900   -0.8840 N   0  0  3  0  0  0  0  0  0  0  0  0
   -1.5800    1.7250   -2.2200 C   0  0  0  0  0  0  0  0  0  0  0  0
    0.3590    2.4000   -0.7290 C   0  0  0  0  0  0  0  0  0  0  0  0
    1.2390    1.1770   -0.6850 C   0  0  0  0  0  0  0  0  0  0  0  0
    0.7470    0.0720   -0.7760 O   0  0  0  0  0  0  0  0  0  0  0  0
    3.3810    0.1760   -0.4190 C   0  0  0  0  0  0  0  0  0  0  0  0
    3.8190   -2.0670   -0.9740 N   0  0  0  0  0  0  0  0  0  0  0  0
    2.9730    2.1950   -0.5380 H   0  0  0  0  0  0  0  0  0  0  0  0
    2.1840   -1.0270   -1.7220 H   0  0  0  0  0  0  0  0  0  0  0  0
    5.4890   -2.9760   -0.1400 H   0  0  0  0  0  0  0  0  0  0  0  0
    6.1620   -0.9650    1.1100 H   0  0  0  0  0  0  0  0  0  0  0  0
    5.5620    2.0600    0.5200 H   0  0  0  0  0  0  0  0  0  0  0  0
    4.0020    2.0230    1.3780 H   0  0  0  0  0  0  0  0  0  0  0  0
    5.4140    1.1790    2.0590 H   0  0  0  0  0  0  0  0  0  0  0  0
   -0.9510    0.7080    2.8330 H   0  0  0  0  0  0  0  0  0  0  0  0
   -3.5380   -3.7640   -2.0060 H   0  0  0  0  0  0  0  0  0  0  0  0
   -3.7200   -1.4180   -2.7190 H   0  0  0  0  0  0  0  0  0  0  0  0
   -2.5400   -4.3110    0.1760 H   0  0  0  0  0  0  0  0  0  0  0  0
   -1.4880   -3.4780    2.2850 H   0  0  0  0  0  0  0  0  0  0  0  0
   -0.7200   -1.6030    3.6390 H   0  0  0  0  0  0  0  0  0  0  0  0
   -1.9950    2.6450   -2.6330 H   0  0  0  0  0  0  0  0  0  0  0  0
   -0.7840    1.3620   -2.8690 H   0  0  0  0  0  0  0  0  0  0  0  0
   -2.3650    0.9720   -2.1510 H   0  0  0  0  0  0  0  0  0  0  0  0
    0.6500    3.0270   -1.5710 H   0  0  0  0  0  0  0  0  0  0  0  0
    0.4720    2.9620    0.1980 H   0  0  0  0  0  0  0  0  0  0  0  0
  4 26  2  0  0  0  0
  3 26  1  0  0  0  0
  4  5  1  0  0  0  0
  3 25  2  0  0  0  0
  5  6  2  0  0  0  0
  6 25  1  0  0  0  0
  1 25  1  0  0  0  0
  6  7  1  0  0  0  0
  1 23  1  0  0  0  0
 23 24  2  0  0  0  0
 22 23  1  0  0  0  0
 20 22  1  0  0  0  0
 12 13  2  0  0  0  0
 13 20  1  0  0  0  0
 20 21  1  0  0  0  0
 13 15  1  0  0  0  0
 13 14  2  0  0  0  0
  8 15  2  0  0  0  0
  8 19  1  0  0  0  0
 11 15  1  0  0  0  0
  2 11  2  0  0  0  0
  2 16  1  0  0  0  0
 18 19  2  0  0  0  0
  9 11  1  0  0  0  0
 10 16  2  0  0  0  0
  9 18  1  0  0  0  0
  9 17  2  0  0  0  0
 10 17  1  0  0  0  0
  1 27  1  0  0  0  0
  3 28  1  0  0  0  0
  4 29  1  0  0  0  0
  5 30  1  0  0  0  0
  7 31  1  0  0  0  0
  7 32  1  0  0  0  0
  7 33  1  0  0  0  0
  8 34  1  0  0  0  0
 10 35  1  0  0  0  0
 16 36  1  0  0  0  0
 17 37  1  0  0  0  0
 18 38  1  0  0  0  0
 19 39  1  0  0  0  0
 21 40  1  0  0  0  0
 21 41  1  0  0  0  0
 21 42  1  0  0  0  0
 22 43  1  0  0  0  0
 22 44  1  0  0  0  0
M  END
> <OPENEYE_ISO_SMILES>
Cc1ccncc1NC(=O)CN(C)S(=O)(=O)c2cccc3c2nccc3

> <OPENEYE_INCHI>
InChI=1S/C18H18N4O3S/c1-13-8-10-19-11-15(13)21-17(23)12-22(2)26(24,25)16-7-3-5-14-6-4-9-20-18(14)16/h3-11H,12H2,1-2H3,(H,21,23)

> <OPENEYE_INCHIKEY>
SLABCQCJIBADKR-UHFFFAOYSA-N

> <FORMULA>
C18H18N4O3S

$$$$
