Q5R
  -OEChem-05102419333D

 44 47  0     0  0  0  0  0  0999 V2000
   -2.8160   -0.6490   -0.4280 N   0  0  0  0  0  0  0  0  0  0  0  0
   -1.2110   -2.1470    0.6580 C   0  0  0  0  0  0  0  0  0  0  0  0
   -4.0980   -0.0970   -0.4040 C   0  0  0  0  0  0  0  0  0  0  0  0
   -4.9240   -0.3010    0.6950 C   0  0  0  0  0  0  0  0  0  0  0  0
   -6.1920    0.2460    0.7150 C   0  0  0  0  0  0  0  0  0  0  0  0
   -6.6390    0.9980   -0.3560 C   0  0  0  0  0  0  0  0  0  0  0  0
   -4.5490    0.6630   -1.4750 C   0  0  0  0  0  0  0  0  0  0  0  0
    2.7270    2.2920    0.7620 C   0  0  0  0  0  0  0  0  0  0  0  0
    3.1910   -0.3260   -0.0710 C   0  0  0  0  0  0  0  0  0  0  0  0
    4.6090   -1.8880   -1.1980 C   0  0  0  0  0  0  0  0  0  0  0  0
    2.5300    3.4410    1.1170 O   0  0  0  0  0  0  0  0  0  0  0  0
    1.7420    1.2610    1.0810 C   0  0  0  0  0  0  0  0  0  0  0  0
    3.8450    1.9930    0.0770 N   0  0  0  0  0  0  0  0  0  0  0  0
    4.1030    0.7080   -0.3480 C   0  0  0  0  0  0  0  0  0  0  0  0
    5.2660    0.4190   -1.0560 C   0  0  0  0  0  0  0  0  0  0  0  0
    5.5120   -0.8700   -1.4750 C   0  0  0  0  0  0  0  0  0  0  0  0
    3.4610   -1.6270   -0.5050 C   0  0  0  0  0  0  0  0  0  0  0  0
    1.9610   -0.0250    0.6770 C   0  0  0  0  0  0  0  0  0  0  0  0
    0.9800   -1.0940    0.9850 C   0  0  0  0  0  0  0  0  0  0  0  0
    1.2170   -1.9020    1.8610 O   0  0  0  0  0  0  0  0  0  0  0  0
   -0.1750   -1.1680    0.2940 N   0  0  0  0  0  0  0  0  0  0  0  0
   -2.5470   -1.4110    0.8000 C   0  0  0  0  0  0  0  0  0  0  0  0
   -1.7990    0.3890   -0.6440 C   0  0  0  0  0  0  0  0  0  0  0  0
   -0.4320   -0.2730   -0.8440 C   0  0  0  0  0  0  0  0  0  0  0  0
   -5.8200    1.2030   -1.4510 C   0  0  0  0  0  0  0  0  0  0  0  0
   -1.2900   -2.9030   -0.1220 H   0  0  0  0  0  0  0  0  0  0  0  0
   -0.9530   -2.6220    1.6050 H   0  0  0  0  0  0  0  0  0  0  0  0
   -4.5750   -0.8880    1.5310 H   0  0  0  0  0  0  0  0  0  0  0  0
   -6.8340    0.0870    1.5690 H   0  0  0  0  0  0  0  0  0  0  0  0
   -7.6310    1.4240   -0.3380 H   0  0  0  0  0  0  0  0  0  0  0  0
   -3.9080    0.8280   -2.3290 H   0  0  0  0  0  0  0  0  0  0  0  0
    4.8160   -2.8930   -1.5330 H   0  0  0  0  0  0  0  0  0  0  0  0
    0.8490    1.5140    1.6320 H   0  0  0  0  0  0  0  0  0  0  0  0
    4.4830    2.6970   -0.1220 H   0  0  0  0  0  0  0  0  0  0  0  0
    5.9750    1.2040   -1.2760 H   0  0  0  0  0  0  0  0  0  0  0  0
    6.4160   -1.0920   -2.0230 H   0  0  0  0  0  0  0  0  0  0  0  0
    2.7640   -2.4240   -0.2930 H   0  0  0  0  0  0  0  0  0  0  0  0
   -2.4990   -0.7280    1.6480 H   0  0  0  0  0  0  0  0  0  0  0  0
   -3.3460   -2.1350    0.9610 H   0  0  0  0  0  0  0  0  0  0  0  0
   -2.0560    0.9700   -1.5300 H   0  0  0  0  0  0  0  0  0  0  0  0
   -1.7610    1.0470    0.2240 H   0  0  0  0  0  0  0  0  0  0  0  0
    0.3420    0.4920   -0.8910 H   0  0  0  0  0  0  0  0  0  0  0  0
   -0.4370   -0.8500   -1.7690 H   0  0  0  0  0  0  0  0  0  0  0  0
   -6.1730    1.7900   -2.2860 H   0  0  0  0  0  0  0  0  0  0  0  0
  8 11  2  0  0  0  0
  8 13  1  0  0  0  0
  8 12  1  0  0  0  0
 13 14  1  0  0  0  0
 12 18  2  0  0  0  0
 14 15  2  0  0  0  0
  9 14  1  0  0  0  0
 15 16  1  0  0  0  0
  9 18  1  0  0  0  0
 18 19  1  0  0  0  0
  9 17  2  0  0  0  0
 19 20  2  0  0  0  0
 19 21  1  0  0  0  0
 21 24  1  0  0  0  0
 23 24  1  0  0  0  0
 10 16  2  0  0  0  0
  2 21  1  0  0  0  0
 10 17  1  0  0  0  0
  1 23  1  0  0  0  0
  2 22  1  0  0  0  0
  4  5  2  0  0  0  0
  3  4  1  0  0  0  0
  5  6  1  0  0  0  0
  1  3  1  0  0  0  0
  1 22  1  0  0  0  0
  3  7  2  0  0  0  0
  6 25  2  0  0  0  0
  7 25  1  0  0  0  0
  2 26  1  0  0  0  0
  2 27  1  0  0  0  0
  4 28  1  0  0  0  0
  5 29  1  0  0  0  0
  6 30  1  0  0  0  0
  7 31  1  0  0  0  0
 10 32  1  0  0  0  0
 12 33  1  0  0  0  0
 13 34  1  0  0  0  0
 15 35  1  0  0  0  0
 16 36  1  0  0  0  0
 17 37  1  0  0  0  0
 22 38  1  0  0  0  0
 22 39  1  0  0  0  0
 23 40  1  0  0  0  0
 23 41  1  0  0  0  0
 24 42  1  0  0  0  0
 24 43  1  0  0  0  0
 25 44  1  0  0  0  0
M  END
> <OPENEYE_ISO_SMILES>
c1ccc(cc1)N2CCN(CC2)C(=O)c3cc(=O)[nH]c4c3cccc4

> <OPENEYE_INCHI>
InChI=1S/C20H19N3O2/c24-19-14-17(16-8-4-5-9-18(16)21-19)20(25)23-12-10-22(11-13-23)15-6-2-1-3-7-15/h1-9,14H,10-13H2,(H,21,24)

> <OPENEYE_INCHIKEY>
NZVVEMCRCLJDCU-UHFFFAOYSA-N

> <FORMULA>
C20H19N3O2

$$$$
