QBR
  -OEChem-05102419333D

 67 70  0     1  0  0  0  0  0999 V2000
   -1.8840   -0.1590   -0.8030 N   0  0  0  0  0  0  0  0  0  0  0  0
    4.8800    0.9230    0.8000 C   0  0  0  0  0  0  0  0  0  0  0  0
    3.9070    0.7510    1.7670 C   0  0  0  0  0  0  0  0  0  0  0  0
    2.7880   -0.0120    1.4950 C   0  0  0  0  0  0  0  0  0  0  0  0
    2.6420   -0.6070    0.2480 C   0  0  0  0  0  0  0  0  0  0  0  0
    3.6220   -0.4330   -0.7200 C   0  0  0  0  0  0  0  0  0  0  0  0
    0.4810   -0.8710   -0.9390 C   0  0  1  0  0  0  0  0  0  0  0  0
   -4.1960    0.6140   -1.0030 C   0  0  0  0  0  0  0  0  0  0  0  0
   -6.4070   -0.1560   -0.1160 C   0  0  0  0  0  0  0  0  0  0  0  0
   -7.8080    1.2920    1.1780 C   0  0  0  0  0  0  0  0  0  0  0  0
    0.9480    0.4230   -1.5530 C   0  0  0  0  0  0  0  0  0  0  0  0
    0.9380    0.5910   -2.9290 C   0  0  0  0  0  0  0  0  0  0  0  0
    1.3770    1.7990   -3.4500 C   0  0  0  0  0  0  0  0  0  0  0  0
    1.3870    1.4600   -0.7510 C   0  0  0  0  0  0  0  0  0  0  0  0
    0.2410   -3.4530    0.1590 C   0  0  0  0  0  0  0  0  0  0  0  0
   -1.2270   -5.1190    0.0640 C   0  0  0  0  0  0  0  0  0  0  0  0
    2.1770   -2.9810    1.3610 O   0  0  0  0  0  0  0  0  0  0  0  0
    1.3690   -2.5960    0.5360 C   0  0  0  0  0  0  0  0  0  0  0  0
   -0.6560   -3.1990   -0.8160 O   0  0  0  0  0  0  0  0  0  0  0  0
   -1.5430   -4.2010   -0.8760 C   0  0  0  0  0  0  0  0  0  0  0  0
   -0.0820   -4.6510    0.7290 C   0  0  0  0  0  0  0  0  0  0  0  0
    1.5110   -1.3810   -0.0310 N   0  0  0  0  0  0  0  0  0  0  0  0
    4.7350    0.3360   -0.4440 C   0  0  0  0  0  0  0  0  0  0  0  0
    6.1000    1.7560    1.1010 C   0  0  0  0  0  0  0  0  0  0  0  0
    7.0130    1.7850   -0.1260 C   0  0  0  0  0  0  0  0  0  0  0  0
    5.6690    3.1820    1.4510 C   0  0  0  0  0  0  0  0  0  0  0  0
    6.8550    1.1460    2.2840 C   0  0  0  0  0  0  0  0  0  0  0  0
    1.7980    2.5950   -1.2810 N   0  0  0  0  0  0  0  0  0  0  0  0
    1.8070    2.7880   -2.5860 C   0  0  0  0  0  0  0  0  0  0  0  0
   -0.7930   -0.6310   -0.1690 C   0  0  0  0  0  0  0  0  0  0  0  0
   -0.8350   -0.8630    1.0200 O   0  0  0  0  0  0  0  0  0  0  0  0
   -3.1220    0.0750   -0.0560 C   0  0  0  0  0  0  0  0  0  0  0  0
   -5.4700    0.8540   -0.2330 C   0  0  0  0  0  0  0  0  0  0  0  0
   -5.7000    2.0830    0.3550 C   0  0  0  0  0  0  0  0  0  0  0  0
   -6.8700    2.3030    1.0620 C   0  0  0  0  0  0  0  0  0  0  0  0
   -7.0960    3.5040    1.6370 F   0  0  0  0  0  0  0  0  0  0  0  0
   -7.5750    0.0630    0.5890 C   0  0  0  0  0  0  0  0  0  0  0  0
   -1.8490    0.0310   -1.7540 H   0  0  0  0  0  0  0  0  0  0  0  0
    4.0210    1.2140    2.7360 H   0  0  0  0  0  0  0  0  0  0  0  0
    2.0280   -0.1460    2.2500 H   0  0  0  0  0  0  0  0  0  0  0  0
    3.5120   -0.8950   -1.6910 H   0  0  0  0  0  0  0  0  0  0  0  0
    0.2970   -1.6020   -1.7270 H   0  0  0  0  0  0  0  0  0  0  0  0
   -3.8550    1.5510   -1.4430 H   0  0  0  0  0  0  0  0  0  0  0  0
   -4.3810   -0.1130   -1.7930 H   0  0  0  0  0  0  0  0  0  0  0  0
   -6.2280   -1.1150   -0.5800 H   0  0  0  0  0  0  0  0  0  0  0  0
   -8.7210    1.4620    1.7300 H   0  0  0  0  0  0  0  0  0  0  0  0
    0.5970   -0.2000   -3.5800 H   0  0  0  0  0  0  0  0  0  0  0  0
    1.3840    1.9640   -4.5170 H   0  0  0  0  0  0  0  0  0  0  0  0
    1.3930    1.3390    0.3220 H   0  0  0  0  0  0  0  0  0  0  0  0
   -1.7520   -6.0410    0.2630 H   0  0  0  0  0  0  0  0  0  0  0  0
   -2.3760   -4.2640   -1.5600 H   0  0  0  0  0  0  0  0  0  0  0  0
    0.4390   -5.1410    1.5380 H   0  0  0  0  0  0  0  0  0  0  0  0
    5.4980    0.4720   -1.1960 H   0  0  0  0  0  0  0  0  0  0  0  0
    6.4750    2.2190   -0.9690 H   0  0  0  0  0  0  0  0  0  0  0  0
    7.8940    2.3880    0.0910 H   0  0  0  0  0  0  0  0  0  0  0  0
    7.3190    0.7690   -0.3750 H   0  0  0  0  0  0  0  0  0  0  0  0
    5.0190    3.1610    2.3250 H   0  0  0  0  0  0  0  0  0  0  0  0
    6.5510    3.7840    1.6680 H   0  0  0  0  0  0  0  0  0  0  0  0
    5.1310    3.6160    0.6080 H   0  0  0  0  0  0  0  0  0  0  0  0
    7.1610    0.1310    2.0350 H   0  0  0  0  0  0  0  0  0  0  0  0
    7.7360    1.7490    2.5010 H   0  0  0  0  0  0  0  0  0  0  0  0
    6.2040    1.1260    3.1580 H   0  0  0  0  0  0  0  0  0  0  0  0
    2.1510    3.7310   -2.9840 H   0  0  0  0  0  0  0  0  0  0  0  0
   -3.4630   -0.8620    0.3850 H   0  0  0  0  0  0  0  0  0  0  0  0
   -2.9370    0.8020    0.7350 H   0  0  0  0  0  0  0  0  0  0  0  0
   -4.9670    2.8710    0.2640 H   0  0  0  0  0  0  0  0  0  0  0  0
   -8.3090   -0.7250    0.6770 H   0  0  0  0  0  0  0  0  0  0  0  0
 16 21  1  0  0  0  0
 16 20  2  0  0  0  0
 15 21  2  0  0  0  0
 17 18  2  0  0  0  0
 19 20  1  0  0  0  0
 15 18  1  0  0  0  0
 15 19  1  0  0  0  0
 18 22  1  0  0  0  0
 13 29  2  0  0  0  0
 12 13  1  0  0  0  0
 28 29  1  0  0  0  0
 14 28  2  0  0  0  0
 11 12  2  0  0  0  0
 11 14  1  0  0  0  0
  7 11  1  0  0  0  0
  7 22  1  0  0  0  0
  5 22  1  0  0  0  0
  7 30  1  0  0  0  0
  4  5  2  0  0  0  0
  5  6  1  0  0  0  0
  3  4  1  0  0  0  0
  6 23  2  0  0  0  0
  1 30  1  0  0  0  0
 30 31  2  0  0  0  0
  1 32  1  0  0  0  0
  2  3  2  0  0  0  0
  2 23  1  0  0  0  0
  2 24  1  0  0  0  0
  8 32  1  0  0  0  0
 24 25  1  0  0  0  0
 24 27  1  0  0  0  0
 24 26  1  0  0  0  0
  8 33  1  0  0  0  0
 33 34  2  0  0  0  0
  9 33  1  0  0  0  0
 34 35  1  0  0  0  0
  9 37  2  0  0  0  0
 35 36  1  0  0  0  0
 10 35  2  0  0  0  0
 10 37  1  0  0  0  0
  1 38  1  0  0  0  0
  3 39  1  0  0  0  0
  4 40  1  0  0  0  0
  6 41  1  0  0  0  0
  7 42  1  0  0  0  0
  8 43  1  0  0  0  0
  8 44  1  0  0  0  0
  9 45  1  0  0  0  0
 10 46  1  0  0  0  0
 12 47  1  0  0  0  0
 13 48  1  0  0  0  0
 14 49  1  0  0  0  0
 16 50  1  0  0  0  0
 20 51  1  0  0  0  0
 21 52  1  0  0  0  0
 23 53  1  0  0  0  0
 25 54  1  0  0  0  0
 25 55  1  0  0  0  0
 25 56  1  0  0  0  0
 26 57  1  0  0  0  0
 26 58  1  0  0  0  0
 26 59  1  0  0  0  0
 27 60  1  0  0  0  0
 27 61  1  0  0  0  0
 27 62  1  0  0  0  0
 29 63  1  0  0  0  0
 32 64  1  0  0  0  0
 32 65  1  0  0  0  0
 34 66  1  0  0  0  0
 37 67  1  0  0  0  0
M  END
> <OPENEYE_ISO_SMILES>
CC(C)(C)c1ccc(cc1)N([C@H](c2cccnc2)C(=O)NCCc3cccc(c3)F)C(=O)c4ccco4

> <OPENEYE_INCHI>
InChI=1S/C30H30FN3O3/c1-30(2,3)23-11-13-25(14-12-23)34(29(36)26-10-6-18-37-26)27(22-8-5-16-32-20-22)28(35)33-17-15-21-7-4-9-24(31)19-21/h4-14,16,18-20,27H,15,17H2,1-3H3,(H,33,35)/t27-/m1/s1

> <OPENEYE_INCHIKEY>
WPJAOHFPXGCVSV-HHHXNRCGSA-N

> <FORMULA>
C30H30FN3O3

$$$$
