QC3
  -OEChem-05102419333D

 38 41  0     1  0  0  0  0  0999 V2000
    4.2940   -1.9370   -0.9380 N   0  0  0  0  0  0  0  0  0  0  0  0
   -2.3190   -0.2220    0.3720 C   0  0  0  0  0  0  0  0  0  0  0  0
   -3.5880   -0.6070   -0.0180 C   0  0  0  0  0  0  0  0  0  0  0  0
   -1.2700   -1.2650    0.6600 C   0  0  2  0  0  0  0  0  0  0  0  0
   -0.7440   -1.1180    2.1060 C   0  0  0  0  0  0  0  0  0  0  0  0
    0.7510   -1.4670    1.9340 C   0  0  0  0  0  0  0  0  0  0  0  0
    2.3630   -0.9930    0.0380 C   0  0  0  0  0  0  0  0  0  0  0  0
    4.3010    0.3740   -0.4840 C   0  0  0  0  0  0  0  0  0  0  0  0
    4.2900    2.7170   -0.0140 C   0  0  0  0  0  0  0  0  0  0  0  0
    2.3450    1.4210    0.5240 C   0  0  0  0  0  0  0  0  0  0  0  0
   -0.0770   -0.7970   -1.3940 O   0  0  0  0  0  0  0  0  0  0  0  0
   -0.0500   -1.0420   -0.2060 C   0  0  0  0  0  0  0  0  0  0  0  0
   -2.0100    1.1210    0.4930 C   0  0  0  0  0  0  0  0  0  0  0  0
   -2.9700    2.0780    0.2240 C   0  0  0  0  0  0  0  0  0  0  0  0
   -4.2400    1.6940   -0.1660 C   0  0  0  0  0  0  0  0  0  0  0  0
   -4.5490    0.3510   -0.2880 C   0  0  0  0  0  0  0  0  0  0  0  0
   -6.1420   -0.1320   -0.7790 Cl  0  0  0  0  0  0  0  0  0  0  0  0
    1.0680   -1.1530    0.5360 N   0  0  0  0  0  0  0  0  0  0  0  0
    2.9840    0.2740    0.0350 C   0  0  0  0  0  0  0  0  0  0  0  0
    2.9960    2.6170    0.4940 C   0  0  0  0  0  0  0  0  0  0  0  0
    4.9420    1.6230   -0.4980 C   0  0  0  0  0  0  0  0  0  0  0  0
    4.9250   -0.7870   -0.9680 C   0  0  0  0  0  0  0  0  0  0  0  0
    3.0650   -2.0700   -0.4620 C   0  0  0  0  0  0  0  0  0  0  0  0
   -3.8290   -1.6550   -0.1130 H   0  0  0  0  0  0  0  0  0  0  0  0
   -1.6740   -2.2650    0.5000 H   0  0  0  0  0  0  0  0  0  0  0  0
   -0.8680   -0.0970    2.4650 H   0  0  0  0  0  0  0  0  0  0  0  0
   -1.2360   -1.8260    2.7740 H   0  0  0  0  0  0  0  0  0  0  0  0
    1.3580   -0.8570    2.6040 H   0  0  0  0  0  0  0  0  0  0  0  0
    0.9190   -2.5260    2.1310 H   0  0  0  0  0  0  0  0  0  0  0  0
    4.7840    3.6780   -0.0250 H   0  0  0  0  0  0  0  0  0  0  0  0
    1.3420    1.3570    0.9200 H   0  0  0  0  0  0  0  0  0  0  0  0
   -1.0190    1.4210    0.7980 H   0  0  0  0  0  0  0  0  0  0  0  0
   -2.7290    3.1260    0.3190 H   0  0  0  0  0  0  0  0  0  0  0  0
   -4.9900    2.4420   -0.3760 H   0  0  0  0  0  0  0  0  0  0  0  0
    2.5030    3.5010    0.8720 H   0  0  0  0  0  0  0  0  0  0  0  0
    5.9440    1.7170   -0.8880 H   0  0  0  0  0  0  0  0  0  0  0  0
    5.9270   -0.7330   -1.3670 H   0  0  0  0  0  0  0  0  0  0  0  0
    2.6010   -3.0460   -0.4660 H   0  0  0  0  0  0  0  0  0  0  0  0
  9 21  2  0  0  0  0
  8 21  1  0  0  0  0
  9 20  1  0  0  0  0
  8 22  2  0  0  0  0
  1 22  1  0  0  0  0
  8 19  1  0  0  0  0
  1 23  2  0  0  0  0
 10 20  2  0  0  0  0
 10 19  1  0  0  0  0
  7 19  2  0  0  0  0
  7 23  1  0  0  0  0
  6 18  1  0  0  0  0
  5  6  1  0  0  0  0
  7 18  1  0  0  0  0
 12 18  1  0  0  0  0
  4  5  1  0  0  0  0
  4 12  1  0  0  0  0
 11 12  2  0  0  0  0
  2  4  1  0  0  0  0
  2  3  2  0  0  0  0
  2 13  1  0  0  0  0
  3 16  1  0  0  0  0
 13 14  2  0  0  0  0
 16 17  1  0  0  0  0
 15 16  2  0  0  0  0
 14 15  1  0  0  0  0
  3 24  1  0  0  0  0
  4 25  1  0  0  0  0
  5 26  1  0  0  0  0
  5 27  1  0  0  0  0
  6 28  1  0  0  0  0
  6 29  1  0  0  0  0
  9 30  1  0  0  0  0
 10 31  1  0  0  0  0
 13 32  1  0  0  0  0
 14 33  1  0  0  0  0
 15 34  1  0  0  0  0
 20 35  1  0  0  0  0
 21 36  1  0  0  0  0
 22 37  1  0  0  0  0
 23 38  1  0  0  0  0
M  END
> <OPENEYE_ISO_SMILES>
c1ccc2c(c1)cncc2N3CC[C@H](C3=O)c4cccc(c4)Cl

> <OPENEYE_INCHI>
InChI=1S/C19H15ClN2O/c20-15-6-3-5-13(10-15)17-8-9-22(19(17)23)18-12-21-11-14-4-1-2-7-16(14)18/h1-7,10-12,17H,8-9H2/t17-/m0/s1

> <OPENEYE_INCHIKEY>
RNKBROMGPBKNFK-KRWDZBQOSA-N

> <FORMULA>
C19H15ClN2O

$$$$
