QD9
  -OEChem-05102419333D

 54 57  0     0  0  0  0  0  0999 V2000
    2.1340    1.1730   -1.1570 N   0  0  0  0  0  0  0  0  0  0  0  0
   -4.7390   -0.9930    2.2820 N   0  0  0  0  0  0  0  0  0  0  0  0
    0.9580    1.7820    0.7940 C   0  0  0  0  0  0  0  0  0  0  0  0
    1.1150    0.9860   -0.3340 C   0  0  0  0  0  0  0  0  0  0  0  0
    3.0340    2.1130   -0.9440 C   0  0  0  0  0  0  0  0  0  0  0  0
    0.5160   -1.0860   -1.5540 C   0  0  0  0  0  0  0  0  0  0  0  0
    1.3140   -2.1570   -0.8560 C   0  0  0  0  0  0  0  0  0  0  0  0
    1.4220   -4.2970    0.2130 C   0  0  0  0  0  0  0  0  0  0  0  0
    2.6680   -1.9820   -0.6440 C   0  0  0  0  0  0  0  0  0  0  0  0
   -1.9870   -1.1400   -0.2250 C   0  0  0  0  0  0  0  0  0  0  0  0
   -3.5890   -1.2690    1.6820 C   0  0  0  0  0  0  0  0  0  0  0  0
   -6.4520    1.0390   -0.2100 C   0  0  0  0  0  0  0  0  0  0  0  0
   -6.2070    1.5190   -1.4610 C   0  0  0  0  0  0  0  0  0  0  0  0
   -5.0070    1.2440   -2.1150 C   0  0  0  0  0  0  0  0  0  0  0  0
   -4.2590   -0.0230   -0.2340 C   0  0  0  0  0  0  0  0  0  0  0  0
   -1.3030    0.8900    0.7640 O   0  0  0  0  0  0  0  0  0  0  0  0
   -1.0110   -0.0180    0.0150 C   0  0  0  0  0  0  0  0  0  0  0  0
   -3.3030   -0.8110    0.4310 C   0  0  0  0  0  0  0  0  0  0  0  0
   -4.0420    0.4880   -1.5220 C   0  0  0  0  0  0  0  0  0  0  0  0
   -5.4810    0.2560    0.4320 C   0  0  0  0  0  0  0  0  0  0  0  0
   -5.6770   -0.2660    1.7210 C   0  0  0  0  0  0  0  0  0  0  0  0
    0.1880   -0.0230   -0.6020 N   0  0  0  0  0  0  0  0  0  0  0  0
    1.8820    2.7780    1.0510 C   0  0  0  0  0  0  0  0  0  0  0  0
    2.9420    2.9460    0.1620 C   0  0  0  0  0  0  0  0  0  0  0  0
    3.9010    3.9410    0.3810 N   0  0  0  0  0  0  0  0  0  0  0  0
    3.7940    4.8160    1.5520 C   0  0  0  0  0  0  0  0  0  0  0  0
    5.0110    4.1090   -0.5600 C   0  0  0  0  0  0  0  0  0  0  0  0
    3.4010   -2.9650   -0.0030 C   0  0  0  0  0  0  0  0  0  0  0  0
    5.1020   -2.7460    0.2650 Cl  0  0  0  0  0  0  0  0  0  0  0  0
    2.7770   -4.1230    0.4260 C   0  0  0  0  0  0  0  0  0  0  0  0
    0.6900   -3.3120   -0.4230 C   0  0  0  0  0  0  0  0  0  0  0  0
    0.1240    1.6240    1.4620 H   0  0  0  0  0  0  0  0  0  0  0  0
    3.8530    2.2350   -1.6380 H   0  0  0  0  0  0  0  0  0  0  0  0
    1.1040   -0.6720   -2.3740 H   0  0  0  0  0  0  0  0  0  0  0  0
   -0.4040   -1.5180   -1.9490 H   0  0  0  0  0  0  0  0  0  0  0  0
    0.9350   -5.2010    0.5480 H   0  0  0  0  0  0  0  0  0  0  0  0
    3.1550   -1.0780   -0.9790 H   0  0  0  0  0  0  0  0  0  0  0  0
   -2.1370   -1.2680   -1.2970 H   0  0  0  0  0  0  0  0  0  0  0  0
   -1.5910   -2.0630    0.1990 H   0  0  0  0  0  0  0  0  0  0  0  0
   -2.8590   -1.8740    2.1990 H   0  0  0  0  0  0  0  0  0  0  0  0
   -7.3870    1.2610    0.2840 H   0  0  0  0  0  0  0  0  0  0  0  0
   -6.9550    2.1220   -1.9540 H   0  0  0  0  0  0  0  0  0  0  0  0
   -4.8400    1.6380   -3.1060 H   0  0  0  0  0  0  0  0  0  0  0  0
   -3.1170    0.2820   -2.0400 H   0  0  0  0  0  0  0  0  0  0  0  0
   -6.5970   -0.0690    2.2500 H   0  0  0  0  0  0  0  0  0  0  0  0
    1.7850    3.4120    1.9210 H   0  0  0  0  0  0  0  0  0  0  0  0
    4.3310    4.3700    2.3890 H   0  0  0  0  0  0  0  0  0  0  0  0
    4.2270    5.7890    1.3190 H   0  0  0  0  0  0  0  0  0  0  0  0
    2.7440    4.9400    1.8180 H   0  0  0  0  0  0  0  0  0  0  0  0
    4.7230    4.8130   -1.3400 H   0  0  0  0  0  0  0  0  0  0  0  0
    5.8830    4.4910   -0.0280 H   0  0  0  0  0  0  0  0  0  0  0  0
    5.2540    3.1470   -1.0100 H   0  0  0  0  0  0  0  0  0  0  0  0
    3.3480   -4.8910    0.9270 H   0  0  0  0  0  0  0  0  0  0  0  0
   -0.3700   -3.4470   -0.5850 H   0  0  0  0  0  0  0  0  0  0  0  0
 12 13  2  0  0  0  0
 12 20  1  0  0  0  0
 20 21  2  0  0  0  0
  2 21  1  0  0  0  0
 13 14  1  0  0  0  0
 15 20  1  0  0  0  0
  2 11  2  0  0  0  0
 14 19  2  0  0  0  0
 15 19  1  0  0  0  0
 15 18  2  0  0  0  0
 11 18  1  0  0  0  0
 25 27  1  0  0  0  0
 10 18  1  0  0  0  0
 25 26  1  0  0  0  0
 24 25  1  0  0  0  0
 10 17  1  0  0  0  0
 23 24  2  0  0  0  0
  5 24  1  0  0  0  0
  3 23  1  0  0  0  0
  1  5  2  0  0  0  0
  3  4  2  0  0  0  0
  1  4  1  0  0  0  0
  4 22  1  0  0  0  0
 17 22  1  0  0  0  0
 16 17  2  0  0  0  0
  6 22  1  0  0  0  0
  6  7  1  0  0  0  0
  7  9  2  0  0  0  0
  9 28  1  0  0  0  0
  7 31  1  0  0  0  0
 28 29  1  0  0  0  0
 28 30  2  0  0  0  0
  8 31  2  0  0  0  0
  8 30  1  0  0  0  0
  3 32  1  0  0  0  0
  5 33  1  0  0  0  0
  6 34  1  0  0  0  0
  6 35  1  0  0  0  0
  8 36  1  0  0  0  0
  9 37  1  0  0  0  0
 10 38  1  0  0  0  0
 10 39  1  0  0  0  0
 11 40  1  0  0  0  0
 12 41  1  0  0  0  0
 13 42  1  0  0  0  0
 14 43  1  0  0  0  0
 19 44  1  0  0  0  0
 21 45  1  0  0  0  0
 23 46  1  0  0  0  0
 26 47  1  0  0  0  0
 26 48  1  0  0  0  0
 26 49  1  0  0  0  0
 27 50  1  0  0  0  0
 27 51  1  0  0  0  0
 27 52  1  0  0  0  0
 30 53  1  0  0  0  0
 31 54  1  0  0  0  0
M  END
> <OPENEYE_ISO_SMILES>
CN(C)c1ccc(nc1)N(Cc2cccc(c2)Cl)C(=O)Cc3cncc4c3cccc4

> <OPENEYE_INCHI>
InChI=1S/C25H23ClN4O/c1-29(2)22-10-11-24(28-16-22)30(17-18-6-5-8-21(26)12-18)25(31)13-20-15-27-14-19-7-3-4-9-23(19)20/h3-12,14-16H,13,17H2,1-2H3

> <OPENEYE_INCHIKEY>
UJFDJUBIAPUKQV-UHFFFAOYSA-N

> <FORMULA>
C25H23ClN4O

$$$$
