QDU
  -OEChem-05102419333D

 34 36  0     0  0  0  0  0  0999 V2000
    2.7680    2.0820   -1.2380 N   0  0  0  0  0  0  0  0  0  0  0  0
   -2.8140   -0.3390    0.6120 C   0  0  0  0  0  0  0  0  0  0  0  0
   -1.5070   -0.6220    1.3060 C   0  0  0  0  0  0  0  0  0  0  0  0
   -0.3810    0.0220    0.5390 C   0  0  0  0  0  0  0  0  0  0  0  0
    1.9400    0.4190    0.2180 C   0  0  0  0  0  0  0  0  0  0  0  0
    1.7800    1.5770   -0.5140 C   0  0  0  0  0  0  0  0  0  0  0  0
    4.2240    0.3420   -0.6060 C   0  0  0  0  0  0  0  0  0  0  0  0
    4.6720   -1.9930    0.8210 C   0  0  0  0  0  0  0  0  0  0  0  0
    3.1930   -0.2310    0.1830 C   0  0  0  0  0  0  0  0  0  0  0  0
   -0.6170    0.6500   -0.4720 O   0  0  0  0  0  0  0  0  0  0  0  0
   -3.4380    0.8860    0.7820 C   0  0  0  0  0  0  0  0  0  0  0  0
   -2.8770    1.8250    1.5750 F   0  0  0  0  0  0  0  0  0  0  0  0
   -4.6360    1.1480    0.1400 C   0  0  0  0  0  0  0  0  0  0  0  0
   -5.2090    0.1870   -0.6720 C   0  0  0  0  0  0  0  0  0  0  0  0
   -3.3880   -1.2990   -0.2000 C   0  0  0  0  0  0  0  0  0  0  0  0
   -4.5860   -1.0370   -0.8420 C   0  0  0  0  0  0  0  0  0  0  0  0
   -5.1470   -1.9760   -1.6350 F   0  0  0  0  0  0  0  0  0  0  0  0
    0.8880   -0.0980    0.9770 N   0  0  0  0  0  0  0  0  0  0  0  0
    3.4420   -1.4110    0.8950 C   0  0  0  0  0  0  0  0  0  0  0  0
    5.6860   -1.4320    0.0470 C   0  0  0  0  0  0  0  0  0  0  0  0
    5.4790   -0.2860   -0.6580 C   0  0  0  0  0  0  0  0  0  0  0  0
    3.9540    1.5250   -1.3120 C   0  0  0  0  0  0  0  0  0  0  0  0
   -1.5380   -0.2160    2.3170 H   0  0  0  0  0  0  0  0  0  0  0  0
   -1.3460   -1.6990    1.3520 H   0  0  0  0  0  0  0  0  0  0  0  0
    0.8270    2.0850   -0.4950 H   0  0  0  0  0  0  0  0  0  0  0  0
    4.8640   -2.9030    1.3710 H   0  0  0  0  0  0  0  0  0  0  0  0
   -5.1220    2.1020    0.2730 H   0  0  0  0  0  0  0  0  0  0  0  0
   -6.1440    0.3910   -1.1730 H   0  0  0  0  0  0  0  0  0  0  0  0
   -2.9010   -2.2540   -0.3330 H   0  0  0  0  0  0  0  0  0  0  0  0
    1.0700   -0.5440    1.8190 H   0  0  0  0  0  0  0  0  0  0  0  0
    2.6650   -1.8570    1.4990 H   0  0  0  0  0  0  0  0  0  0  0  0
    6.6520   -1.9130    0.0070 H   0  0  0  0  0  0  0  0  0  0  0  0
    6.2740    0.1370   -1.2540 H   0  0  0  0  0  0  0  0  0  0  0  0
    4.7250    1.9780   -1.9180 H   0  0  0  0  0  0  0  0  0  0  0  0
 20 21  2  0  0  0  0
  7 21  1  0  0  0  0
  8 20  1  0  0  0  0
  7 22  2  0  0  0  0
  1 22  1  0  0  0  0
  7  9  1  0  0  0  0
  1  6  2  0  0  0  0
  8 19  2  0  0  0  0
  9 19  1  0  0  0  0
  5  9  2  0  0  0  0
  5  6  1  0  0  0  0
  5 18  1  0  0  0  0
  4 18  1  0  0  0  0
  3  4  1  0  0  0  0
  4 10  2  0  0  0  0
  2  3  1  0  0  0  0
  2 15  2  0  0  0  0
  2 11  1  0  0  0  0
 15 16  1  0  0  0  0
 11 12  1  0  0  0  0
 11 13  2  0  0  0  0
 16 17  1  0  0  0  0
 14 16  2  0  0  0  0
 13 14  1  0  0  0  0
  3 23  1  0  0  0  0
  3 24  1  0  0  0  0
  6 25  1  0  0  0  0
  8 26  1  0  0  0  0
 13 27  1  0  0  0  0
 14 28  1  0  0  0  0
 15 29  1  0  0  0  0
 18 30  1  0  0  0  0
 19 31  1  0  0  0  0
 20 32  1  0  0  0  0
 21 33  1  0  0  0  0
 22 34  1  0  0  0  0
M  END
> <OPENEYE_ISO_SMILES>
c1ccc2c(c1)cncc2NC(=O)Cc3cc(ccc3F)F

> <OPENEYE_INCHI>
InChI=1S/C17H12F2N2O/c18-13-5-6-15(19)12(7-13)8-17(22)21-16-10-20-9-11-3-1-2-4-14(11)16/h1-7,9-10H,8H2,(H,21,22)

> <OPENEYE_INCHIKEY>
HVJFVWJFZCGHBH-UHFFFAOYSA-N

> <FORMULA>
C17H12F2N2O

$$$$
