QE3
  -OEChem-05102419333D

 33 35  0     0  0  0  0  0  0999 V2000
    2.9050    2.4720    0.1180 N   0  0  0  0  0  0  0  0  0  0  0  0
   -1.1020   -1.4560    0.8730 C   0  0  0  0  0  0  0  0  0  0  0  0
   -0.0490   -0.4260    0.5570 C   0  0  0  0  0  0  0  0  0  0  0  0
    2.2320    0.2350    0.4580 C   0  0  0  0  0  0  0  0  0  0  0  0
    1.9810    1.5910    0.4730 C   0  0  0  0  0  0  0  0  0  0  0  0
    4.1100    2.1240   -0.2680 C   0  0  0  0  0  0  0  0  0  0  0  0
    5.7490    0.3530   -0.7280 C   0  0  0  0  0  0  0  0  0  0  0  0
    3.8500   -1.5660    0.0070 C   0  0  0  0  0  0  0  0  0  0  0  0
   -4.0480    0.7270    0.6100 C   0  0  0  0  0  0  0  0  0  0  0  0
   -0.3650    0.6300    0.0510 O   0  0  0  0  0  0  0  0  0  0  0  0
   -2.4550   -0.9320    0.4680 C   0  0  0  0  0  0  0  0  0  0  0  0
   -3.2450   -1.6720   -0.3910 C   0  0  0  0  0  0  0  0  0  0  0  0
   -4.4910   -1.1840   -0.7540 C   0  0  0  0  0  0  0  0  0  0  0  0
   -2.8720    0.2280    0.9370 N   0  0  0  0  0  0  0  0  0  0  0  0
   -4.8960    0.0400   -0.2410 C   0  0  0  0  0  0  0  0  0  0  0  0
   -6.4460    0.7000   -0.6600 Cl  0  0  0  0  0  0  0  0  0  0  0  0
    1.2460   -0.6790    0.8350 N   0  0  0  0  0  0  0  0  0  0  0  0
    3.5100   -0.2080    0.0510 C   0  0  0  0  0  0  0  0  0  0  0  0
    5.1000   -1.9320   -0.3940 C   0  0  0  0  0  0  0  0  0  0  0  0
    6.0450   -0.9760   -0.7590 C   0  0  0  0  0  0  0  0  0  0  0  0
    4.4710    0.7670   -0.3200 C   0  0  0  0  0  0  0  0  0  0  0  0
   -0.8890   -2.3740    0.3260 H   0  0  0  0  0  0  0  0  0  0  0  0
   -1.0990   -1.6620    1.9440 H   0  0  0  0  0  0  0  0  0  0  0  0
    1.0080    1.9440    0.7810 H   0  0  0  0  0  0  0  0  0  0  0  0
    4.8270    2.8820   -0.5470 H   0  0  0  0  0  0  0  0  0  0  0  0
    6.4920    1.0830   -1.0140 H   0  0  0  0  0  0  0  0  0  0  0  0
    3.1270   -2.3180    0.2880 H   0  0  0  0  0  0  0  0  0  0  0  0
   -4.3550    1.6800    1.0140 H   0  0  0  0  0  0  0  0  0  0  0  0
   -2.8980   -2.6220   -0.7710 H   0  0  0  0  0  0  0  0  0  0  0  0
   -5.1300   -1.7410   -1.4240 H   0  0  0  0  0  0  0  0  0  0  0  0
    1.4920   -1.4950    1.2980 H   0  0  0  0  0  0  0  0  0  0  0  0
    5.3620   -2.9790   -0.4280 H   0  0  0  0  0  0  0  0  0  0  0  0
    7.0290   -1.2930   -1.0730 H   0  0  0  0  0  0  0  0  0  0  0  0
  7 20  2  0  0  0  0
  7 21  1  0  0  0  0
 19 20  1  0  0  0  0
  6 21  2  0  0  0  0
  1  6  1  0  0  0  0
 18 21  1  0  0  0  0
  8 19  2  0  0  0  0
  1  5  2  0  0  0  0
  8 18  1  0  0  0  0
  4 18  2  0  0  0  0
  4  5  1  0  0  0  0
  4 17  1  0  0  0  0
  3 17  1  0  0  0  0
  2  3  1  0  0  0  0
  3 10  2  0  0  0  0
  2 11  1  0  0  0  0
 11 12  2  0  0  0  0
 12 13  1  0  0  0  0
 11 14  1  0  0  0  0
 13 15  2  0  0  0  0
  9 14  2  0  0  0  0
  9 15  1  0  0  0  0
 15 16  1  0  0  0  0
  2 22  1  0  0  0  0
  2 23  1  0  0  0  0
  5 24  1  0  0  0  0
  6 25  1  0  0  0  0
  7 26  1  0  0  0  0
  8 27  1  0  0  0  0
  9 28  1  0  0  0  0
 12 29  1  0  0  0  0
 13 30  1  0  0  0  0
 17 31  1  0  0  0  0
 19 32  1  0  0  0  0
 20 33  1  0  0  0  0
M  END
> <OPENEYE_ISO_SMILES>
c1ccc2c(c1)cncc2NC(=O)Cc3ccc(cn3)Cl

> <OPENEYE_INCHI>
InChI=1S/C16H12ClN3O/c17-12-5-6-13(19-9-12)7-16(21)20-15-10-18-8-11-3-1-2-4-14(11)15/h1-6,8-10H,7H2,(H,20,21)

> <OPENEYE_INCHIKEY>
RMUFMFDOQHTPNN-UHFFFAOYSA-N

> <FORMULA>
C16H12ClN3O

$$$$
