QER
  -OEChem-05102419333D

 34 36  0     0  0  0  0  0  0999 V2000
    2.5800   -2.3920    0.5120 N   0  0  0  0  0  0  0  0  0  0  0  0
   -2.9930    0.4060   -0.7340 C   0  0  0  0  0  0  0  0  0  0  0  0
   -1.6720    0.8950   -1.2700 C   0  0  0  0  0  0  0  0  0  0  0  0
   -0.5570    0.0660   -0.6880 C   0  0  0  0  0  0  0  0  0  0  0  0
    1.7620   -0.3830   -0.4190 C   0  0  0  0  0  0  0  0  0  0  0  0
    1.6040   -1.7070   -0.0650 C   0  0  0  0  0  0  0  0  0  0  0  0
    4.0190   -0.5270    0.4680 C   0  0  0  0  0  0  0  0  0  0  0  0
    4.4610    2.1290   -0.1950 C   0  0  0  0  0  0  0  0  0  0  0  0
    3.0000    0.2410   -0.1520 C   0  0  0  0  0  0  0  0  0  0  0  0
   -0.8090   -0.8340    0.0860 O   0  0  0  0  0  0  0  0  0  0  0  0
   -3.6860   -0.5860   -1.4020 C   0  0  0  0  0  0  0  0  0  0  0  0
   -4.8950   -1.0390   -0.9090 C   0  0  0  0  0  0  0  0  0  0  0  0
   -5.4130   -0.5000    0.2540 C   0  0  0  0  0  0  0  0  0  0  0  0
   -3.5090    0.9460    0.4290 C   0  0  0  0  0  0  0  0  0  0  0  0
   -4.7200    0.4930    0.9240 C   0  0  0  0  0  0  0  0  0  0  0  0
   -5.2250    1.0200    2.0610 F   0  0  0  0  0  0  0  0  0  0  0  0
    0.7220    0.3230   -1.0280 N   0  0  0  0  0  0  0  0  0  0  0  0
    3.2460    1.5810   -0.4780 C   0  0  0  0  0  0  0  0  0  0  0  0
    5.4630    1.3750    0.4140 C   0  0  0  0  0  0  0  0  0  0  0  0
    5.2590    0.0700    0.7450 C   0  0  0  0  0  0  0  0  0  0  0  0
    3.7520   -1.8690    0.7860 C   0  0  0  0  0  0  0  0  0  0  0  0
   -1.6650    0.8030   -2.3560 H   0  0  0  0  0  0  0  0  0  0  0  0
   -1.5310    1.9390   -0.9920 H   0  0  0  0  0  0  0  0  0  0  0  0
    0.6620   -2.1970   -0.2640 H   0  0  0  0  0  0  0  0  0  0  0  0
    4.6510    3.1610   -0.4460 H   0  0  0  0  0  0  0  0  0  0  0  0
   -3.2830   -1.0070   -2.3110 H   0  0  0  0  0  0  0  0  0  0  0  0
   -5.4360   -1.8140   -1.4320 H   0  0  0  0  0  0  0  0  0  0  0  0
   -6.3580   -0.8540    0.6390 H   0  0  0  0  0  0  0  0  0  0  0  0
   -2.9680    1.7210    0.9510 H   0  0  0  0  0  0  0  0  0  0  0  0
    0.9200    0.9990   -1.6950 H   0  0  0  0  0  0  0  0  0  0  0  0
    2.4780    2.1760   -0.9500 H   0  0  0  0  0  0  0  0  0  0  0  0
    6.4170    1.8340    0.6270 H   0  0  0  0  0  0  0  0  0  0  0  0
    6.0440   -0.5010    1.2170 H   0  0  0  0  0  0  0  0  0  0  0  0
    4.5140   -2.4720    1.2580 H   0  0  0  0  0  0  0  0  0  0  0  0
 19 20  2  0  0  0  0
  7 20  1  0  0  0  0
  8 19  1  0  0  0  0
  7 21  2  0  0  0  0
  1 21  1  0  0  0  0
  7  9  1  0  0  0  0
  1  6  2  0  0  0  0
  8 18  2  0  0  0  0
  9 18  1  0  0  0  0
  5  9  2  0  0  0  0
  5  6  1  0  0  0  0
  5 17  1  0  0  0  0
  4 17  1  0  0  0  0
  3  4  1  0  0  0  0
  4 10  2  0  0  0  0
  2  3  1  0  0  0  0
  2 14  2  0  0  0  0
  2 11  1  0  0  0  0
 14 15  1  0  0  0  0
 11 12  2  0  0  0  0
 15 16  1  0  0  0  0
 13 15  2  0  0  0  0
 12 13  1  0  0  0  0
  3 22  1  0  0  0  0
  3 23  1  0  0  0  0
  6 24  1  0  0  0  0
  8 25  1  0  0  0  0
 11 26  1  0  0  0  0
 12 27  1  0  0  0  0
 13 28  1  0  0  0  0
 14 29  1  0  0  0  0
 17 30  1  0  0  0  0
 18 31  1  0  0  0  0
 19 32  1  0  0  0  0
 20 33  1  0  0  0  0
 21 34  1  0  0  0  0
M  END
> <OPENEYE_ISO_SMILES>
c1ccc2c(c1)cncc2NC(=O)Cc3cccc(c3)F

> <OPENEYE_INCHI>
InChI=1S/C17H13FN2O/c18-14-6-3-4-12(8-14)9-17(21)20-16-11-19-10-13-5-1-2-7-15(13)16/h1-8,10-11H,9H2,(H,20,21)

> <OPENEYE_INCHIKEY>
IMZAGSRTOVZPED-UHFFFAOYSA-N

> <FORMULA>
C17H13FN2O

$$$$
