QEX
  -OEChem-05102419333D

 37 39  0     0  0  0  0  0  0999 V2000
    2.5060   -2.4000    0.4740 N   0  0  0  0  0  0  0  0  0  0  0  0
   -3.7710   -0.5390   -1.3660 C   0  0  0  0  0  0  0  0  0  0  0  0
   -3.0670    0.4360   -0.6840 C   0  0  0  0  0  0  0  0  0  0  0  0
   -1.7490    0.9290   -1.2220 C   0  0  0  0  0  0  0  0  0  0  0  0
   -0.6310    0.0860   -0.6630 C   0  0  0  0  0  0  0  0  0  0  0  0
    1.6880   -0.3740   -0.4190 C   0  0  0  0  0  0  0  0  0  0  0  0
    3.6820   -1.8850    0.7480 C   0  0  0  0  0  0  0  0  0  0  0  0
    5.4010    1.3590    0.4160 C   0  0  0  0  0  0  0  0  0  0  0  0
    3.1780    1.5870   -0.4560 C   0  0  0  0  0  0  0  0  0  0  0  0
   -3.5720    0.9590    0.4920 C   0  0  0  0  0  0  0  0  0  0  0  0
   -0.8810   -0.8240    0.0980 O   0  0  0  0  0  0  0  0  0  0  0  0
   -4.9810   -0.9900   -0.8720 C   0  0  0  0  0  0  0  0  0  0  0  0
   -5.4830   -0.4720    0.3070 C   0  0  0  0  0  0  0  0  0  0  0  0
   -4.7820    0.5060    0.9860 C   0  0  0  0  0  0  0  0  0  0  0  0
   -5.3320    1.0760    2.2680 C   0  0  0  0  0  0  0  0  0  0  0  0
    0.6460    0.3450   -1.0080 N   0  0  0  0  0  0  0  0  0  0  0  0
    2.9300    0.2420   -0.1510 C   0  0  0  0  0  0  0  0  0  0  0  0
    4.3970    2.1250   -0.1730 C   0  0  0  0  0  0  0  0  0  0  0  0
    5.1940    0.0500    0.7270 C   0  0  0  0  0  0  0  0  0  0  0  0
    3.9510   -0.5400    0.4490 C   0  0  0  0  0  0  0  0  0  0  0  0
    1.5280   -1.7030   -0.0860 C   0  0  0  0  0  0  0  0  0  0  0  0
   -3.3790   -0.9440   -2.2870 H   0  0  0  0  0  0  0  0  0  0  0  0
   -1.7500    0.8550   -2.3090 H   0  0  0  0  0  0  0  0  0  0  0  0
   -1.6020    1.9680   -0.9280 H   0  0  0  0  0  0  0  0  0  0  0  0
    4.4440   -2.4980    1.2050 H   0  0  0  0  0  0  0  0  0  0  0  0
    6.3580    1.8110    0.6290 H   0  0  0  0  0  0  0  0  0  0  0  0
    2.4080    2.1910   -0.9130 H   0  0  0  0  0  0  0  0  0  0  0  0
   -3.0220    1.7200    1.0250 H   0  0  0  0  0  0  0  0  0  0  0  0
   -5.5340   -1.7480   -1.4080 H   0  0  0  0  0  0  0  0  0  0  0  0
   -6.4280   -0.8250    0.6920 H   0  0  0  0  0  0  0  0  0  0  0  0
   -5.9560    1.9410    2.0430 H   0  0  0  0  0  0  0  0  0  0  0  0
   -5.9310    0.3190    2.7740 H   0  0  0  0  0  0  0  0  0  0  0  0
   -4.5090    1.3790    2.9140 H   0  0  0  0  0  0  0  0  0  0  0  0
    0.8410    1.0310   -1.6660 H   0  0  0  0  0  0  0  0  0  0  0  0
    4.5880    3.1620   -0.4090 H   0  0  0  0  0  0  0  0  0  0  0  0
    5.9820   -0.5320    1.1830 H   0  0  0  0  0  0  0  0  0  0  0  0
    0.5840   -2.1860   -0.2850 H   0  0  0  0  0  0  0  0  0  0  0  0
  8 19  2  0  0  0  0
 19 20  1  0  0  0  0
  8 18  1  0  0  0  0
  7 20  2  0  0  0  0
  1  7  1  0  0  0  0
 17 20  1  0  0  0  0
  1 21  2  0  0  0  0
  9 18  2  0  0  0  0
  9 17  1  0  0  0  0
  6 17  2  0  0  0  0
  6 21  1  0  0  0  0
  6 16  1  0  0  0  0
  5 16  1  0  0  0  0
  4  5  1  0  0  0  0
  5 11  2  0  0  0  0
  3  4  1  0  0  0  0
  3 10  2  0  0  0  0
  2  3  1  0  0  0  0
 10 14  1  0  0  0  0
  2 12  2  0  0  0  0
 14 15  1  0  0  0  0
 13 14  2  0  0  0  0
 12 13  1  0  0  0  0
  2 22  1  0  0  0  0
  4 23  1  0  0  0  0
  4 24  1  0  0  0  0
  7 25  1  0  0  0  0
  8 26  1  0  0  0  0
  9 27  1  0  0  0  0
 10 28  1  0  0  0  0
 12 29  1  0  0  0  0
 13 30  1  0  0  0  0
 15 31  1  0  0  0  0
 15 32  1  0  0  0  0
 15 33  1  0  0  0  0
 16 34  1  0  0  0  0
 18 35  1  0  0  0  0
 19 36  1  0  0  0  0
 21 37  1  0  0  0  0
M  END
> <OPENEYE_ISO_SMILES>
Cc1cccc(c1)CC(=O)Nc2cncc3c2cccc3

> <OPENEYE_INCHI>
InChI=1S/C18H16N2O/c1-13-5-4-6-14(9-13)10-18(21)20-17-12-19-11-15-7-2-3-8-16(15)17/h2-9,11-12H,10H2,1H3,(H,20,21)

> <OPENEYE_INCHIKEY>
VGTLCIFBGULFDX-UHFFFAOYSA-N

> <FORMULA>
C18H16N2O

$$$$
