QF5
  -OEChem-05102419333D

 34 36  0     0  0  0  0  0  0999 V2000
    2.1020   -2.4210    0.0290 N   0  0  0  0  0  0  0  0  0  0  0  0
   -5.1070    0.3970    1.3990 C   0  0  0  0  0  0  0  0  0  0  0  0
   -5.7980   -0.4470    0.5500 C   0  0  0  0  0  0  0  0  0  0  0  0
   -5.2860   -0.7430   -0.6990 C   0  0  0  0  0  0  0  0  0  0  0  0
   -4.0830   -0.1930   -1.1010 C   0  0  0  0  0  0  0  0  0  0  0  0
    1.3620   -0.2040   -0.3040 C   0  0  0  0  0  0  0  0  0  0  0  0
    3.3450   -2.0490    0.2300 C   0  0  0  0  0  0  0  0  0  0  0  0
    5.2930    1.0790    0.3230 C   0  0  0  0  0  0  0  0  0  0  0  0
    3.0060    1.6240   -0.1550 C   0  0  0  0  0  0  0  0  0  0  0  0
   -1.1810   -0.6860    0.3040 O   0  0  0  0  0  0  0  0  0  0  0  0
   -0.9490    0.3490   -0.2860 C   0  0  0  0  0  0  0  0  0  0  0  0
    0.3220    0.6880   -0.5760 N   0  0  0  0  0  0  0  0  0  0  0  0
    2.6790    0.2630   -0.0970 C   0  0  0  0  0  0  0  0  0  0  0  0
    4.2950    2.0140    0.0540 C   0  0  0  0  0  0  0  0  0  0  0  0
    5.0110   -0.2510    0.3860 C   0  0  0  0  0  0  0  0  0  0  0  0
    3.6930   -0.6900    0.1760 C   0  0  0  0  0  0  0  0  0  0  0  0
    1.1280   -1.5610   -0.2290 C   0  0  0  0  0  0  0  0  0  0  0  0
   -2.0820    1.2550   -0.6920 C   0  0  0  0  0  0  0  0  0  0  0  0
   -3.3910    0.6510   -0.2520 C   0  0  0  0  0  0  0  0  0  0  0  0
   -3.9060    0.9510    0.9950 C   0  0  0  0  0  0  0  0  0  0  0  0
   -5.5060    0.6270    2.3750 H   0  0  0  0  0  0  0  0  0  0  0  0
   -6.7380   -0.8770    0.8640 H   0  0  0  0  0  0  0  0  0  0  0  0
   -5.8260   -1.4030   -1.3620 H   0  0  0  0  0  0  0  0  0  0  0  0
   -3.6820   -0.4240   -2.0770 H   0  0  0  0  0  0  0  0  0  0  0  0
    4.1020   -2.7920    0.4370 H   0  0  0  0  0  0  0  0  0  0  0  0
    6.3060    1.4160    0.4850 H   0  0  0  0  0  0  0  0  0  0  0  0
    2.2420    2.3590   -0.3630 H   0  0  0  0  0  0  0  0  0  0  0  0
    0.5150    1.5510   -0.9750 H   0  0  0  0  0  0  0  0  0  0  0  0
    4.5460    3.0630    0.0120 H   0  0  0  0  0  0  0  0  0  0  0  0
    5.7950   -0.9640    0.5950 H   0  0  0  0  0  0  0  0  0  0  0  0
    0.1250   -1.9320   -0.3850 H   0  0  0  0  0  0  0  0  0  0  0  0
   -1.9550    2.2300   -0.2210 H   0  0  0  0  0  0  0  0  0  0  0  0
   -2.0820    1.3730   -1.7760 H   0  0  0  0  0  0  0  0  0  0  0  0
   -3.3700    1.6180    1.6540 H   0  0  0  0  0  0  0  0  0  0  0  0
  8 15  2  0  0  0  0
 15 16  1  0  0  0  0
  8 14  1  0  0  0  0
  7 16  2  0  0  0  0
  1  7  1  0  0  0  0
 13 16  1  0  0  0  0
  9 14  2  0  0  0  0
  1 17  2  0  0  0  0
  9 13  1  0  0  0  0
  6 13  2  0  0  0  0
  6 17  1  0  0  0  0
  6 12  1  0  0  0  0
 11 12  1  0  0  0  0
 11 18  1  0  0  0  0
 10 11  2  0  0  0  0
 18 19  1  0  0  0  0
 19 20  2  0  0  0  0
  5 19  1  0  0  0  0
  2 20  1  0  0  0  0
  4  5  2  0  0  0  0
  2  3  2  0  0  0  0
  3  4  1  0  0  0  0
  2 21  1  0  0  0  0
  3 22  1  0  0  0  0
  4 23  1  0  0  0  0
  5 24  1  0  0  0  0
  7 25  1  0  0  0  0
  8 26  1  0  0  0  0
  9 27  1  0  0  0  0
 12 28  1  0  0  0  0
 14 29  1  0  0  0  0
 15 30  1  0  0  0  0
 17 31  1  0  0  0  0
 18 32  1  0  0  0  0
 18 33  1  0  0  0  0
 20 34  1  0  0  0  0
M  END
> <OPENEYE_ISO_SMILES>
c1ccc(cc1)CC(=O)Nc2cncc3c2cccc3

> <OPENEYE_INCHI>
InChI=1S/C17H14N2O/c20-17(10-13-6-2-1-3-7-13)19-16-12-18-11-14-8-4-5-9-15(14)16/h1-9,11-12H,10H2,(H,19,20)

> <OPENEYE_INCHIKEY>
IBEFUXAVGLACIF-UHFFFAOYSA-N

> <FORMULA>
C17H14N2O

$$$$
