QFL
  -OEChem-05102419333D

 34 36  0     0  0  0  0  0  0999 V2000
    2.5580   -2.4650   -0.0760 N   0  0  0  0  0  0  0  0  0  0  0  0
   -1.5560    1.3500   -0.8370 C   0  0  0  0  0  0  0  0  0  0  0  0
   -0.4720    0.3530   -0.5190 C   0  0  0  0  0  0  0  0  0  0  0  0
    1.8260   -0.2530   -0.4570 C   0  0  0  0  0  0  0  0  0  0  0  0
    1.6060   -1.6150   -0.4310 C   0  0  0  0  0  0  0  0  0  0  0  0
    3.7630   -2.0790    0.2730 C   0  0  0  0  0  0  0  0  0  0  0  0
    5.3700   -0.2610    0.6480 C   0  0  0  0  0  0  0  0  0  0  0  0
    3.4110    1.5950   -0.0910 C   0  0  0  0  0  0  0  0  0  0  0  0
   -3.6520    0.0450   -1.2510 C   0  0  0  0  0  0  0  0  0  0  0  0
   -0.7520   -0.6960    0.0210 O   0  0  0  0  0  0  0  0  0  0  0  0
   -2.8870    0.8060   -0.3860 C   0  0  0  0  0  0  0  0  0  0  0  0
   -3.3420    1.0670    0.8930 C   0  0  0  0  0  0  0  0  0  0  0  0
   -4.5630    0.5680    1.3080 C   0  0  0  0  0  0  0  0  0  0  0  0
   -4.8720   -0.4540   -0.8390 C   0  0  0  0  0  0  0  0  0  0  0  0
   -5.3290   -0.1930    0.4420 C   0  0  0  0  0  0  0  0  0  0  0  0
   -6.5220   -0.6820    0.8470 F   0  0  0  0  0  0  0  0  0  0  0  0
    0.8090    0.6270   -0.8340 N   0  0  0  0  0  0  0  0  0  0  0  0
    3.1020    0.2290   -0.0930 C   0  0  0  0  0  0  0  0  0  0  0  0
    4.6610    2.0000    0.2700 C   0  0  0  0  0  0  0  0  0  0  0  0
    5.6360    1.0750    0.6380 C   0  0  0  0  0  0  0  0  0  0  0  0
    4.0930   -0.7150    0.2820 C   0  0  0  0  0  0  0  0  0  0  0  0
   -1.3520    2.2870   -0.3190 H   0  0  0  0  0  0  0  0  0  0  0  0
   -1.5820    1.5280   -1.9120 H   0  0  0  0  0  0  0  0  0  0  0  0
    0.6340   -1.9970   -0.7070 H   0  0  0  0  0  0  0  0  0  0  0  0
    4.5030   -2.8140    0.5540 H   0  0  0  0  0  0  0  0  0  0  0  0
    6.1370   -0.9650    0.9350 H   0  0  0  0  0  0  0  0  0  0  0  0
    2.6640    2.3220   -0.3740 H   0  0  0  0  0  0  0  0  0  0  0  0
   -3.2970   -0.1540   -2.2520 H   0  0  0  0  0  0  0  0  0  0  0  0
   -2.7440    1.6610    1.5680 H   0  0  0  0  0  0  0  0  0  0  0  0
   -4.9180    0.7720    2.3070 H   0  0  0  0  0  0  0  0  0  0  0  0
   -5.4710   -1.0450   -1.5160 H   0  0  0  0  0  0  0  0  0  0  0  0
    1.0260    1.4370   -1.3240 H   0  0  0  0  0  0  0  0  0  0  0  0
    4.8990    3.0530    0.2720 H   0  0  0  0  0  0  0  0  0  0  0  0
    6.6190    1.4230    0.9200 H   0  0  0  0  0  0  0  0  0  0  0  0
  7 20  2  0  0  0  0
  7 21  1  0  0  0  0
 19 20  1  0  0  0  0
  6 21  2  0  0  0  0
  1  6  1  0  0  0  0
 18 21  1  0  0  0  0
  8 19  2  0  0  0  0
  1  5  2  0  0  0  0
  8 18  1  0  0  0  0
  4 18  2  0  0  0  0
  4  5  1  0  0  0  0
  4 17  1  0  0  0  0
  3 17  1  0  0  0  0
  2  3  1  0  0  0  0
  3 10  2  0  0  0  0
  2 11  1  0  0  0  0
 11 12  2  0  0  0  0
  9 11  1  0  0  0  0
 12 13  1  0  0  0  0
  9 14  2  0  0  0  0
 13 15  2  0  0  0  0
 14 15  1  0  0  0  0
 15 16  1  0  0  0  0
  2 22  1  0  0  0  0
  2 23  1  0  0  0  0
  5 24  1  0  0  0  0
  6 25  1  0  0  0  0
  7 26  1  0  0  0  0
  8 27  1  0  0  0  0
  9 28  1  0  0  0  0
 12 29  1  0  0  0  0
 13 30  1  0  0  0  0
 14 31  1  0  0  0  0
 17 32  1  0  0  0  0
 19 33  1  0  0  0  0
 20 34  1  0  0  0  0
M  END
> <OPENEYE_ISO_SMILES>
c1ccc2c(c1)cncc2NC(=O)Cc3ccc(cc3)F

> <OPENEYE_INCHI>
InChI=1S/C17H13FN2O/c18-14-7-5-12(6-8-14)9-17(21)20-16-11-19-10-13-3-1-2-4-15(13)16/h1-8,10-11H,9H2,(H,20,21)

> <OPENEYE_INCHIKEY>
XYWOJIRBYMBSKX-UHFFFAOYSA-N

> <FORMULA>
C17H13FN2O

$$$$
