QG3
  -OEChem-05102419333D

 34 36  0     0  0  0  0  0  0999 V2000
    2.8280    2.2330   -1.0400 N   0  0  0  0  0  0  0  0  0  0  0  0
   -2.6480   -0.5110    0.6710 C   0  0  0  0  0  0  0  0  0  0  0  0
   -1.3270   -0.7900    1.3390 C   0  0  0  0  0  0  0  0  0  0  0  0
   -0.2300   -0.0550    0.6110 C   0  0  0  0  0  0  0  0  0  0  0  0
    2.0730    0.4470    0.3060 C   0  0  0  0  0  0  0  0  0  0  0  0
    1.8650    1.6450   -0.3460 C   0  0  0  0  0  0  0  0  0  0  0  0
    4.3520    0.5100   -0.5320 C   0  0  0  0  0  0  0  0  0  0  0  0
    4.8950   -1.8970    0.7340 C   0  0  0  0  0  0  0  0  0  0  0  0
    3.3480   -0.1520    0.2220 C   0  0  0  0  0  0  0  0  0  0  0  0
   -0.4960    0.6290   -0.3550 O   0  0  0  0  0  0  0  0  0  0  0  0
   -3.0930   -1.3290   -0.3500 C   0  0  0  0  0  0  0  0  0  0  0  0
   -4.3100   -1.0760   -0.9610 C   0  0  0  0  0  0  0  0  0  0  0  0
   -4.7450   -1.8770   -1.9580 F   0  0  0  0  0  0  0  0  0  0  0  0
   -5.0810   -0.0030   -0.5480 C   0  0  0  0  0  0  0  0  0  0  0  0
   -3.4170    0.5610    1.0830 C   0  0  0  0  0  0  0  0  0  0  0  0
   -4.6340    0.8160    0.4740 C   0  0  0  0  0  0  0  0  0  0  0  0
   -5.3860    1.8640    0.8780 F   0  0  0  0  0  0  0  0  0  0  0  0
    1.0450   -0.1580    1.0340 N   0  0  0  0  0  0  0  0  0  0  0  0
    3.6450   -1.3670    0.8530 C   0  0  0  0  0  0  0  0  0  0  0  0
    5.8820   -1.2480   -0.0050 C   0  0  0  0  0  0  0  0  0  0  0  0
    5.6280   -0.0660   -0.6320 C   0  0  0  0  0  0  0  0  0  0  0  0
    4.0340    1.7270   -1.1560 C   0  0  0  0  0  0  0  0  0  0  0  0
   -1.3640   -0.4540    2.3750 H   0  0  0  0  0  0  0  0  0  0  0  0
   -1.1250   -1.8610    1.3120 H   0  0  0  0  0  0  0  0  0  0  0  0
    0.8940    2.1150   -0.2890 H   0  0  0  0  0  0  0  0  0  0  0  0
    5.1250   -2.8330    1.2210 H   0  0  0  0  0  0  0  0  0  0  0  0
   -2.4910   -2.1660   -0.6720 H   0  0  0  0  0  0  0  0  0  0  0  0
   -6.0300    0.1950   -1.0240 H   0  0  0  0  0  0  0  0  0  0  0  0
   -3.0680    1.2000    1.8810 H   0  0  0  0  0  0  0  0  0  0  0  0
    1.2500   -0.6520    1.8430 H   0  0  0  0  0  0  0  0  0  0  0  0
    2.8890   -1.8800    1.4290 H   0  0  0  0  0  0  0  0  0  0  0  0
    6.8650   -1.6900   -0.0830 H   0  0  0  0  0  0  0  0  0  0  0  0
    6.4030    0.4250   -1.2020 H   0  0  0  0  0  0  0  0  0  0  0  0
    4.7830    2.2470   -1.7340 H   0  0  0  0  0  0  0  0  0  0  0  0
 20 21  2  0  0  0  0
  7 21  1  0  0  0  0
  8 20  1  0  0  0  0
  7 22  2  0  0  0  0
  1 22  1  0  0  0  0
  7  9  1  0  0  0  0
  8 19  2  0  0  0  0
  1  6  2  0  0  0  0
  9 19  1  0  0  0  0
  5  9  2  0  0  0  0
  5  6  1  0  0  0  0
  5 18  1  0  0  0  0
  4 18  1  0  0  0  0
  3  4  1  0  0  0  0
  4 10  2  0  0  0  0
  2  3  1  0  0  0  0
  2 11  2  0  0  0  0
  2 15  1  0  0  0  0
 11 12  1  0  0  0  0
 15 16  2  0  0  0  0
 12 13  1  0  0  0  0
 12 14  2  0  0  0  0
 14 16  1  0  0  0  0
 16 17  1  0  0  0  0
  3 23  1  0  0  0  0
  3 24  1  0  0  0  0
  6 25  1  0  0  0  0
  8 26  1  0  0  0  0
 11 27  1  0  0  0  0
 14 28  1  0  0  0  0
 15 29  1  0  0  0  0
 18 30  1  0  0  0  0
 19 31  1  0  0  0  0
 20 32  1  0  0  0  0
 21 33  1  0  0  0  0
 22 34  1  0  0  0  0
M  END
> <OPENEYE_ISO_SMILES>
c1ccc2c(c1)cncc2NC(=O)Cc3cc(cc(c3)F)F

> <OPENEYE_INCHI>
InChI=1S/C17H12F2N2O/c18-13-5-11(6-14(19)8-13)7-17(22)21-16-10-20-9-12-3-1-2-4-15(12)16/h1-6,8-10H,7H2,(H,21,22)

> <OPENEYE_INCHIKEY>
RXQWWUHGRJKJHB-UHFFFAOYSA-N

> <FORMULA>
C17H12F2N2O

$$$$
