QGO
  -OEChem-05102419333D

 52 55  0     1  0  0  0  0  0999 V2000
    0.7370    0.0850   -0.3270 N   0  0  0  0  0  0  0  0  0  0  0  0
   -1.5300   -0.9030   -0.4050 C   0  0  1  0  0  0  0  0  0  0  0  0
   -2.3070   -1.8730   -1.2990 C   0  0  0  0  0  0  0  0  0  0  0  0
   -2.6970   -1.1350   -2.5860 C   0  0  0  0  0  0  0  0  0  0  0  0
   -3.2550    0.7450   -1.2230 C   0  0  0  0  0  0  0  0  0  0  0  0
   -3.9150    1.9640   -1.1050 C   0  0  0  0  0  0  0  0  0  0  0  0
   -2.6150    2.4870    0.8350 C   0  0  0  0  0  0  0  0  0  0  0  0
   -0.1640   -0.6620   -0.9960 C   0  0  0  0  0  0  0  0  0  0  0  0
    2.2510    0.0880   -2.2070 C   0  0  0  0  0  0  0  0  0  0  0  0
    4.3520    0.8980   -0.6460 C   0  0  0  0  0  0  0  0  0  0  0  0
    3.9920    1.3560    2.0660 C   0  0  0  0  0  0  0  0  0  0  0  0
    2.9220    0.9440    1.3280 C   0  0  0  0  0  0  0  0  0  0  0  0
    3.0810    0.7070   -0.0430 C   0  0  0  0  0  0  0  0  0  0  0  0
    0.1240   -1.1410   -2.0720 O   0  0  0  0  0  0  0  0  0  0  0  0
   -2.2730    0.4050   -0.3100 C   0  0  0  0  0  0  0  0  0  0  0  0
   -1.9560    1.2770    0.7190 C   0  0  0  0  0  0  0  0  0  0  0  0
   -2.2130    3.5740    2.1270 Cl  0  0  0  0  0  0  0  0  0  0  0  0
   -3.5960    2.8300   -0.0790 C   0  0  0  0  0  0  0  0  0  0  0  0
   -3.6010   -0.0820   -2.2440 O   0  0  0  0  0  0  0  0  0  0  0  0
   -1.3800   -1.5070    0.9920 C   0  0  0  0  0  0  0  0  0  0  0  0
   -0.5820   -2.7830    0.9050 C   0  0  0  0  0  0  0  0  0  0  0  0
   -0.0800   -3.1140   -0.1480 O   0  0  0  0  0  0  0  0  0  0  0  0
   -0.4250   -3.5550    1.9990 N   0  0  0  0  0  0  0  0  0  0  0  0
   -1.0300   -3.1550    3.2710 C   0  0  0  0  0  0  0  0  0  0  0  0
    0.3510   -4.7950    1.9140 C   0  0  0  0  0  0  0  0  0  0  0  0
    2.0100    0.2890   -0.8640 C   0  0  0  0  0  0  0  0  0  0  0  0
    5.2400    1.5430    1.4770 C   0  0  0  0  0  0  0  0  0  0  0  0
    5.4310    1.3220    0.1460 C   0  0  0  0  0  0  0  0  0  0  0  0
    4.4890    0.6540   -2.0220 C   0  0  0  0  0  0  0  0  0  0  0  0
    3.4530    0.2720   -2.7310 N   0  0  0  0  0  0  0  0  0  0  0  0
    0.4990    0.4840    0.5240 H   0  0  0  0  0  0  0  0  0  0  0  0
   -1.6800   -2.7300   -1.5430 H   0  0  0  0  0  0  0  0  0  0  0  0
   -3.2050   -2.2100   -0.7810 H   0  0  0  0  0  0  0  0  0  0  0  0
   -1.8060   -0.7160   -3.0540 H   0  0  0  0  0  0  0  0  0  0  0  0
   -3.1830   -1.8270   -3.2730 H   0  0  0  0  0  0  0  0  0  0  0  0
   -4.6800    2.2330   -1.8180 H   0  0  0  0  0  0  0  0  0  0  0  0
    1.4410   -0.2310   -2.8450 H   0  0  0  0  0  0  0  0  0  0  0  0
    3.8690    1.5390    3.1230 H   0  0  0  0  0  0  0  0  0  0  0  0
    1.9600    0.8010    1.7970 H   0  0  0  0  0  0  0  0  0  0  0  0
   -1.1910    1.0110    1.4330 H   0  0  0  0  0  0  0  0  0  0  0  0
   -4.1100    3.7760    0.0100 H   0  0  0  0  0  0  0  0  0  0  0  0
   -0.8640   -0.7990    1.6410 H   0  0  0  0  0  0  0  0  0  0  0  0
   -2.3660   -1.7230    1.4020 H   0  0  0  0  0  0  0  0  0  0  0  0
   -0.3270   -2.5380    3.8300 H   0  0  0  0  0  0  0  0  0  0  0  0
   -1.9390   -2.5850    3.0780 H   0  0  0  0  0  0  0  0  0  0  0  0
   -1.2750   -4.0440    3.8520 H   0  0  0  0  0  0  0  0  0  0  0  0
    1.3970   -4.5850    2.1370 H   0  0  0  0  0  0  0  0  0  0  0  0
   -0.0360   -5.5150    2.6350 H   0  0  0  0  0  0  0  0  0  0  0  0
    0.2690   -5.2070    0.9090 H   0  0  0  0  0  0  0  0  0  0  0  0
    6.0710    1.8700    2.0850 H   0  0  0  0  0  0  0  0  0  0  0  0
    6.4040    1.4720   -0.2960 H   0  0  0  0  0  0  0  0  0  0  0  0
    5.4480    0.7940   -2.5000 H   0  0  0  0  0  0  0  0  0  0  0  0
 27 28  2  0  0  0  0
 10 28  1  0  0  0  0
 23 24  1  0  0  0  0
 10 29  2  0  0  0  0
 29 30  1  0  0  0  0
 11 27  1  0  0  0  0
 10 13  1  0  0  0  0
  9 30  2  0  0  0  0
 11 12  2  0  0  0  0
 12 13  1  0  0  0  0
 13 26  2  0  0  0  0
  9 26  1  0  0  0  0
  1 26  1  0  0  0  0
 23 25  1  0  0  0  0
 21 23  1  0  0  0  0
  1  8  1  0  0  0  0
 20 21  1  0  0  0  0
  2 20  1  0  0  0  0
 21 22  2  0  0  0  0
  2  8  1  0  0  0  0
  8 14  2  0  0  0  0
  2  3  1  0  0  0  0
  2 15  1  0  0  0  0
  3  4  1  0  0  0  0
 15 16  2  0  0  0  0
  5 15  1  0  0  0  0
  7 16  1  0  0  0  0
  4 19  1  0  0  0  0
  5 19  1  0  0  0  0
  5  6  2  0  0  0  0
  7 17  1  0  0  0  0
  7 18  2  0  0  0  0
  6 18  1  0  0  0  0
  1 31  1  0  0  0  0
  3 32  1  0  0  0  0
  3 33  1  0  0  0  0
  4 34  1  0  0  0  0
  4 35  1  0  0  0  0
  6 36  1  0  0  0  0
  9 37  1  0  0  0  0
 11 38  1  0  0  0  0
 12 39  1  0  0  0  0
 16 40  1  0  0  0  0
 18 41  1  0  0  0  0
 20 42  1  0  0  0  0
 20 43  1  0  0  0  0
 24 44  1  0  0  0  0
 24 45  1  0  0  0  0
 24 46  1  0  0  0  0
 25 47  1  0  0  0  0
 25 48  1  0  0  0  0
 25 49  1  0  0  0  0
 27 50  1  0  0  0  0
 28 51  1  0  0  0  0
 29 52  1  0  0  0  0
M  END
> <OPENEYE_ISO_SMILES>
CN(C)C(=O)C[C@]1(CCOc2c1cc(cc2)Cl)C(=O)Nc3cncc4c3cccc4

> <OPENEYE_INCHI>
InChI=1S/C23H22ClN3O3/c1-27(2)21(28)12-23(9-10-30-20-8-7-16(24)11-18(20)23)22(29)26-19-14-25-13-15-5-3-4-6-17(15)19/h3-8,11,13-14H,9-10,12H2,1-2H3,(H,26,29)/t23-/m0/s1

> <OPENEYE_INCHIKEY>
KPAUUUFZYYGHRE-QHCPKHFHSA-N

> <FORMULA>
C23H22ClN3O3

$$$$
