QH6
  -OEChem-05102419333D

 34 36  0     0  0  0  0  0  0999 V2000
    3.2270    2.0820   -1.3100 N   0  0  0  0  0  0  0  0  0  0  0  0
   -0.9120   -0.3120    1.7220 C   0  0  0  0  0  0  0  0  0  0  0  0
    0.1670    0.2470    0.8310 C   0  0  0  0  0  0  0  0  0  0  0  0
    2.4650    0.5230    0.2900 C   0  0  0  0  0  0  0  0  0  0  0  0
    2.2880    1.6550   -0.4790 C   0  0  0  0  0  0  0  0  0  0  0  0
    4.3770    1.4690   -1.4620 C   0  0  0  0  0  0  0  0  0  0  0  0
    5.8780   -0.3790   -0.8600 C   0  0  0  0  0  0  0  0  0  0  0  0
    3.9440   -1.3430    0.9180 C   0  0  0  0  0  0  0  0  0  0  0  0
   -2.8530   -0.8880    0.2510 C   0  0  0  0  0  0  0  0  0  0  0  0
   -4.8380   -1.7190   -1.3910 Cl  0  0  0  0  0  0  0  0  0  0  0  0
   -4.0930   -0.6020   -0.2910 C   0  0  0  0  0  0  0  0  0  0  0  0
   -4.7410    0.5750    0.0450 C   0  0  0  0  0  0  0  0  0  0  0  0
   -5.9520    0.8550   -0.4830 F   0  0  0  0  0  0  0  0  0  0  0  0
   -2.2630   -0.0010    1.1320 C   0  0  0  0  0  0  0  0  0  0  0  0
   -2.9110    1.1720    1.4730 C   0  0  0  0  0  0  0  0  0  0  0  0
   -4.1460    1.4650    0.9240 C   0  0  0  0  0  0  0  0  0  0  0  0
   -0.1320    0.8400   -0.1840 O   0  0  0  0  0  0  0  0  0  0  0  0
    1.4640    0.0870    1.1610 N   0  0  0  0  0  0  0  0  0  0  0  0
    3.6810   -0.1850    0.1750 C   0  0  0  0  0  0  0  0  0  0  0  0
    5.1370   -1.9830    0.7630 C   0  0  0  0  0  0  0  0  0  0  0  0
    6.1000   -1.5020   -0.1220 C   0  0  0  0  0  0  0  0  0  0  0  0
    4.6600    0.3060   -0.7270 C   0  0  0  0  0  0  0  0  0  0  0  0
   -0.7920   -1.3930    1.8040 H   0  0  0  0  0  0  0  0  0  0  0  0
   -0.8350    0.1380    2.7120 H   0  0  0  0  0  0  0  0  0  0  0  0
    1.3630    2.2060   -0.4000 H   0  0  0  0  0  0  0  0  0  0  0  0
    5.1080    1.8600   -2.1540 H   0  0  0  0  0  0  0  0  0  0  0  0
    6.6340   -0.0180   -1.5420 H   0  0  0  0  0  0  0  0  0  0  0  0
    3.2070   -1.7260    1.6070 H   0  0  0  0  0  0  0  0  0  0  0  0
   -2.3480   -1.8060   -0.0100 H   0  0  0  0  0  0  0  0  0  0  0  0
   -2.4500    1.8630    2.1610 H   0  0  0  0  0  0  0  0  0  0  0  0
   -4.6520    2.3810    1.1900 H   0  0  0  0  0  0  0  0  0  0  0  0
    1.7020   -0.3300    2.0030 H   0  0  0  0  0  0  0  0  0  0  0  0
    5.3390   -2.8760    1.3350 H   0  0  0  0  0  0  0  0  0  0  0  0
    7.0370   -2.0290   -0.2250 H   0  0  0  0  0  0  0  0  0  0  0  0
  7 21  2  0  0  0  0
  7 22  1  0  0  0  0
  1  6  2  0  0  0  0
  6 22  1  0  0  0  0
  1  5  1  0  0  0  0
 20 21  1  0  0  0  0
 19 22  2  0  0  0  0
  4  5  2  0  0  0  0
  8 20  2  0  0  0  0
  4 19  1  0  0  0  0
  8 19  1  0  0  0  0
  4 18  1  0  0  0  0
  3 18  1  0  0  0  0
  2  3  1  0  0  0  0
  3 17  2  0  0  0  0
  2 14  1  0  0  0  0
  9 14  2  0  0  0  0
 14 15  1  0  0  0  0
  9 11  1  0  0  0  0
 15 16  2  0  0  0  0
 10 11  1  0  0  0  0
 11 12  2  0  0  0  0
 12 16  1  0  0  0  0
 12 13  1  0  0  0  0
  2 23  1  0  0  0  0
  2 24  1  0  0  0  0
  5 25  1  0  0  0  0
  6 26  1  0  0  0  0
  7 27  1  0  0  0  0
  8 28  1  0  0  0  0
  9 29  1  0  0  0  0
 15 30  1  0  0  0  0
 16 31  1  0  0  0  0
 18 32  1  0  0  0  0
 20 33  1  0  0  0  0
 21 34  1  0  0  0  0
M  END
> <OPENEYE_ISO_SMILES>
c1ccc2c(c1)cncc2NC(=O)Cc3ccc(c(c3)Cl)F

> <OPENEYE_INCHI>
InChI=1S/C17H12ClFN2O/c18-14-7-11(5-6-15(14)19)8-17(22)21-16-10-20-9-12-3-1-2-4-13(12)16/h1-7,9-10H,8H2,(H,21,22)

> <OPENEYE_INCHIKEY>
FVAXWBDMZWOKGB-UHFFFAOYSA-N

> <FORMULA>
C17H12ClFN2O

$$$$
