QIB
  -OEChem-05102419333D

 40 43  0     1  0  0  0  0  0999 V2000
    3.0730   -0.0120   -2.4920 N   0  0  0  0  0  0  0  0  0  0  0  0
   -4.5130    0.7320   -0.2750 C   0  0  0  0  0  0  0  0  0  0  0  0
   -3.9400    1.9860   -0.2070 C   0  0  0  0  0  0  0  0  0  0  0  0
   -2.5870    2.1140    0.0530 C   0  0  0  0  0  0  0  0  0  0  0  0
   -1.8120    0.9850    0.2460 C   0  0  0  0  0  0  0  0  0  0  0  0
   -2.3830   -0.2740    0.1820 C   0  0  0  0  0  0  0  0  0  0  0  0
    1.9760   -0.3320   -0.4260 C   0  0  0  0  0  0  0  0  0  0  0  0
    4.3510    0.1680   -0.5220 C   0  0  0  0  0  0  0  0  0  0  0  0
    5.6320    0.3450    1.4880 C   0  0  0  0  0  0  0  0  0  0  0  0
    3.2900   -0.1500    1.6480 C   0  0  0  0  0  0  0  0  0  0  0  0
   -0.0410   -1.7520   -1.4210 O   0  0  0  0  0  0  0  0  0  0  0  0
   -0.1960   -1.2900   -0.3100 C   0  0  0  0  0  0  0  0  0  0  0  0
   -1.5070   -1.4800    0.4090 C   0  0  2  0  0  0  0  0  0  0  0  0
   -1.8630    3.6890    0.1350 Cl  0  0  0  0  0  0  0  0  0  0  0  0
   -3.7360   -0.4050   -0.0770 C   0  0  0  0  0  0  0  0  0  0  0  0
   -4.3360   -1.6210   -0.1560 O   0  0  0  0  0  0  0  0  0  0  0  0
   -3.6450   -2.7430    0.3960 C   0  0  0  0  0  0  0  0  0  0  0  0
   -2.2040   -2.7330   -0.1270 C   0  0  0  0  0  0  0  0  0  0  0  0
   -1.2640   -1.6340    1.8090 O   0  0  0  0  0  0  0  0  0  0  0  0
    0.8040   -0.6080    0.2820 N   0  0  0  0  0  0  0  0  0  0  0  0
    3.1940   -0.1080    0.2520 C   0  0  0  0  0  0  0  0  0  0  0  0
    4.4940    0.0740    2.2460 C   0  0  0  0  0  0  0  0  0  0  0  0
    5.5750    0.3930    0.1280 C   0  0  0  0  0  0  0  0  0  0  0  0
    4.2340    0.2050   -1.9210 C   0  0  0  0  0  0  0  0  0  0  0  0
    1.9700   -0.2720   -1.8040 C   0  0  0  0  0  0  0  0  0  0  0  0
   -5.5690    0.6340   -0.4780 H   0  0  0  0  0  0  0  0  0  0  0  0
   -4.5470    2.8660   -0.3570 H   0  0  0  0  0  0  0  0  0  0  0  0
   -0.7560    1.0870    0.4480 H   0  0  0  0  0  0  0  0  0  0  0  0
    6.5740    0.5180    1.9870 H   0  0  0  0  0  0  0  0  0  0  0  0
    2.4160   -0.3580    2.2480 H   0  0  0  0  0  0  0  0  0  0  0  0
   -3.6380   -2.6700    1.4840 H   0  0  0  0  0  0  0  0  0  0  0  0
   -4.1410   -3.6650    0.0930 H   0  0  0  0  0  0  0  0  0  0  0  0
   -2.2090   -2.7130   -1.2170 H   0  0  0  0  0  0  0  0  0  0  0  0
   -1.6810   -3.6230    0.2230 H   0  0  0  0  0  0  0  0  0  0  0  0
   -0.8210   -0.8780    2.2170 H   0  0  0  0  0  0  0  0  0  0  0  0
    0.7100   -0.3080    1.2000 H   0  0  0  0  0  0  0  0  0  0  0  0
    4.5680    0.0410    3.3230 H   0  0  0  0  0  0  0  0  0  0  0  0
    6.4650    0.6040   -0.4460 H   0  0  0  0  0  0  0  0  0  0  0  0
    5.1030    0.4120   -2.5280 H   0  0  0  0  0  0  0  0  0  0  0  0
    1.0460   -0.4410   -2.3350 H   0  0  0  0  0  0  0  0  0  0  0  0
  9 23  2  0  0  0  0
  8 23  1  0  0  0  0
  9 22  1  0  0  0  0
  8 24  2  0  0  0  0
  1 24  1  0  0  0  0
  8 21  1  0  0  0  0
  1 25  2  0  0  0  0
 10 22  2  0  0  0  0
 10 21  1  0  0  0  0
  7 21  2  0  0  0  0
  7 25  1  0  0  0  0
  7 20  1  0  0  0  0
 12 20  1  0  0  0  0
 13 19  1  0  0  0  0
 12 13  1  0  0  0  0
 11 12  2  0  0  0  0
 13 18  1  0  0  0  0
  6 13  1  0  0  0  0
 17 18  1  0  0  0  0
  5  6  2  0  0  0  0
  6 15  1  0  0  0  0
  4  5  1  0  0  0  0
 16 17  1  0  0  0  0
  4 14  1  0  0  0  0
  3  4  2  0  0  0  0
 15 16  1  0  0  0  0
  2 15  2  0  0  0  0
  2  3  1  0  0  0  0
  2 26  1  0  0  0  0
  3 27  1  0  0  0  0
  5 28  1  0  0  0  0
  9 29  1  0  0  0  0
 10 30  1  0  0  0  0
 17 31  1  0  0  0  0
 17 32  1  0  0  0  0
 18 33  1  0  0  0  0
 18 34  1  0  0  0  0
 19 35  1  0  0  0  0
 20 36  1  0  0  0  0
 22 37  1  0  0  0  0
 23 38  1  0  0  0  0
 24 39  1  0  0  0  0
 25 40  1  0  0  0  0
M  END
> <OPENEYE_ISO_SMILES>
c1ccc2c(c1)cncc2NC(=O)[C@@]3(CCOc4c3cc(cc4)Cl)O

> <OPENEYE_INCHI>
InChI=1S/C19H15ClN2O3/c20-13-5-6-17-15(9-13)19(24,7-8-25-17)18(23)22-16-11-21-10-12-3-1-2-4-14(12)16/h1-6,9-11,24H,7-8H2,(H,22,23)/t19-/m0/s1

> <OPENEYE_INCHIKEY>
QFIUTQBIZOZBNY-IBGZPJMESA-N

> <FORMULA>
C19H15ClN2O3

$$$$
