QIQ
  -OEChem-05102419333D

 33 35  0     0  0  0  0  0  0999 V2000
    1.1050    0.1290    1.1330 N   0  0  0  0  0  0  0  0  0  0  0  0
   -1.2860   -0.2020    1.6710 C   0  0  0  0  0  0  0  0  0  0  0  0
   -0.1830    0.3050    0.7780 C   0  0  0  0  0  0  0  0  0  0  0  0
    2.1280    0.5200    0.2660 C   0  0  0  0  0  0  0  0  0  0  0  0
    1.9860    1.6320   -0.5370 C   0  0  0  0  0  0  0  0  0  0  0  0
    4.0860    1.3780   -1.4810 C   0  0  0  0  0  0  0  0  0  0  0  0
    5.5430   -0.4770   -0.7970 C   0  0  0  0  0  0  0  0  0  0  0  0
    3.5650   -1.3490    0.9790 C   0  0  0  0  0  0  0  0  0  0  0  0
   -3.2280   -0.7800    0.1880 C   0  0  0  0  0  0  0  0  0  0  0  0
   -0.4540    0.8700   -0.2600 O   0  0  0  0  0  0  0  0  0  0  0  0
   -2.6220    0.1190    1.0510 C   0  0  0  0  0  0  0  0  0  0  0  0
   -3.2570    1.3120    1.3360 C   0  0  0  0  0  0  0  0  0  0  0  0
   -4.4260    1.6000    0.7980 N   0  0  0  0  0  0  0  0  0  0  0  0
   -5.0330    0.7700   -0.0280 C   0  0  0  0  0  0  0  0  0  0  0  0
   -4.4580   -0.4430   -0.3600 C   0  0  0  0  0  0  0  0  0  0  0  0
   -5.2600   -1.5270   -1.4530 Cl  0  0  0  0  0  0  0  0  0  0  0  0
    3.3340   -0.2110    0.1950 C   0  0  0  0  0  0  0  0  0  0  0  0
    4.7500   -2.0120    0.8670 C   0  0  0  0  0  0  0  0  0  0  0  0
    5.7330   -1.5790   -0.0210 C   0  0  0  0  0  0  0  0  0  0  0  0
    4.3370    0.2350   -0.7050 C   0  0  0  0  0  0  0  0  0  0  0  0
    2.9450    2.0170   -1.3650 N   0  0  0  0  0  0  0  0  0  0  0  0
    1.3220   -0.2650    1.9920 H   0  0  0  0  0  0  0  0  0  0  0  0
   -1.1910   -1.2810    1.7910 H   0  0  0  0  0  0  0  0  0  0  0  0
   -1.2140    0.2800    2.6470 H   0  0  0  0  0  0  0  0  0  0  0  0
    1.0700    2.2030   -0.4900 H   0  0  0  0  0  0  0  0  0  0  0  0
    4.8340    1.7320   -2.1740 H   0  0  0  0  0  0  0  0  0  0  0  0
    6.3150   -0.1530   -1.4800 H   0  0  0  0  0  0  0  0  0  0  0  0
    2.8090   -1.6970    1.6670 H   0  0  0  0  0  0  0  0  0  0  0  0
   -2.7520   -1.7190   -0.0570 H   0  0  0  0  0  0  0  0  0  0  0  0
   -2.7920    2.0180    2.0080 H   0  0  0  0  0  0  0  0  0  0  0  0
   -5.9900    1.0400   -0.4490 H   0  0  0  0  0  0  0  0  0  0  0  0
    4.9280   -2.8890    1.4710 H   0  0  0  0  0  0  0  0  0  0  0  0
    6.6610   -2.1260   -0.0930 H   0  0  0  0  0  0  0  0  0  0  0  0
  7 19  2  0  0  0  0
  7 20  1  0  0  0  0
 18 19  1  0  0  0  0
  6 20  2  0  0  0  0
  6 21  1  0  0  0  0
 17 20  1  0  0  0  0
  8 18  2  0  0  0  0
  5 21  2  0  0  0  0
  8 17  1  0  0  0  0
  4 17  2  0  0  0  0
  4  5  1  0  0  0  0
  1  4  1  0  0  0  0
  1  3  1  0  0  0  0
  2  3  1  0  0  0  0
  3 10  2  0  0  0  0
  2 11  1  0  0  0  0
  9 11  2  0  0  0  0
 11 12  1  0  0  0  0
  9 15  1  0  0  0  0
 12 13  2  0  0  0  0
 15 16  1  0  0  0  0
 14 15  2  0  0  0  0
 13 14  1  0  0  0  0
  1 22  1  0  0  0  0
  2 23  1  0  0  0  0
  2 24  1  0  0  0  0
  5 25  1  0  0  0  0
  6 26  1  0  0  0  0
  7 27  1  0  0  0  0
  8 28  1  0  0  0  0
  9 29  1  0  0  0  0
 12 30  1  0  0  0  0
 14 31  1  0  0  0  0
 18 32  1  0  0  0  0
 19 33  1  0  0  0  0
M  END
> <OPENEYE_ISO_SMILES>
c1ccc2c(c1)cncc2NC(=O)Cc3cc(cnc3)Cl

> <OPENEYE_INCHI>
InChI=1S/C16H12ClN3O/c17-13-5-11(7-18-9-13)6-16(21)20-15-10-19-8-12-3-1-2-4-14(12)15/h1-5,7-10H,6H2,(H,20,21)

> <OPENEYE_INCHIKEY>
LPKOUSTWJUXVBF-UHFFFAOYSA-N

> <FORMULA>
C16H12ClN3O

$$$$
