QIZ
  -OEChem-05102419333D

 39 42  0     1  0  0  0  0  0999 V2000
    3.2120    0.2870   -2.4180 N   0  0  0  0  0  0  0  0  0  0  0  0
   -1.6090   -3.1280    0.0280 C   0  0  0  0  0  0  0  0  0  0  0  0
   -1.0880   -1.7800    0.5330 C   0  0  1  0  0  0  0  0  0  0  0  0
    0.1540   -1.4050   -0.2330 C   0  0  0  0  0  0  0  0  0  0  0  0
    2.2610   -0.3090   -0.3410 C   0  0  0  0  0  0  0  0  0  0  0  0
    2.1780   -0.1410   -1.7080 C   0  0  0  0  0  0  0  0  0  0  0  0
    4.5660    0.4420   -0.4980 C   0  0  0  0  0  0  0  0  0  0  0  0
    4.8600    0.1470    2.2440 C   0  0  0  0  0  0  0  0  0  0  0  0
    3.4840   -0.0130    0.3000 C   0  0  0  0  0  0  0  0  0  0  0  0
   -1.7620    0.6110    0.3650 C   0  0  0  0  0  0  0  0  0  0  0  0
   -2.2150    3.2760    0.2330 Cl  0  0  0  0  0  0  0  0  0  0  0  0
   -2.7000    1.6100    0.1870 C   0  0  0  0  0  0  0  0  0  0  0  0
   -4.0290    1.2800   -0.0280 C   0  0  0  0  0  0  0  0  0  0  0  0
   -4.9490    2.2540   -0.2000 F   0  0  0  0  0  0  0  0  0  0  0  0
   -2.1410   -0.7200    0.3300 C   0  0  0  0  0  0  0  0  0  0  0  0
   -3.4670   -1.0540    0.1130 C   0  0  0  0  0  0  0  0  0  0  0  0
   -4.4110   -0.0480   -0.0640 C   0  0  0  0  0  0  0  0  0  0  0  0
   -3.0150   -3.3470    0.6010 C   0  0  0  0  0  0  0  0  0  0  0  0
   -3.8810   -2.3470    0.0620 O   0  0  0  0  0  0  0  0  0  0  0  0
    0.2490   -1.6810   -1.4100 O   0  0  0  0  0  0  0  0  0  0  0  0
    1.1610   -0.7610    0.3910 N   0  0  0  0  0  0  0  0  0  0  0  0
    3.6550   -0.1550    1.6830 C   0  0  0  0  0  0  0  0  0  0  0  0
    5.9240    0.5940    1.4630 C   0  0  0  0  0  0  0  0  0  0  0  0
    5.7920    0.7440    0.1160 C   0  0  0  0  0  0  0  0  0  0  0  0
    4.3730    0.5780   -1.8820 C   0  0  0  0  0  0  0  0  0  0  0  0
   -1.6540   -3.1200   -1.0610 H   0  0  0  0  0  0  0  0  0  0  0  0
   -0.9470   -3.9270    0.3630 H   0  0  0  0  0  0  0  0  0  0  0  0
   -0.8510   -1.8580    1.5940 H   0  0  0  0  0  0  0  0  0  0  0  0
    1.2490   -0.3640   -2.2110 H   0  0  0  0  0  0  0  0  0  0  0  0
    4.9920    0.0380    3.3100 H   0  0  0  0  0  0  0  0  0  0  0  0
   -0.7270    0.8700    0.5320 H   0  0  0  0  0  0  0  0  0  0  0  0
   -5.4470   -0.3050   -0.2310 H   0  0  0  0  0  0  0  0  0  0  0  0
   -3.3770   -4.3360    0.3200 H   0  0  0  0  0  0  0  0  0  0  0  0
   -2.9860   -3.2610    1.6870 H   0  0  0  0  0  0  0  0  0  0  0  0
    1.1220   -0.6120    1.3490 H   0  0  0  0  0  0  0  0  0  0  0  0
    2.8390   -0.5010    2.2990 H   0  0  0  0  0  0  0  0  0  0  0  0
    6.8670    0.8260    1.9340 H   0  0  0  0  0  0  0  0  0  0  0  0
    6.6260    1.0910   -0.4760 H   0  0  0  0  0  0  0  0  0  0  0  0
    5.1830    0.9240   -2.5070 H   0  0  0  0  0  0  0  0  0  0  0  0
 23 24  2  0  0  0  0
  7 24  1  0  0  0  0
  8 23  1  0  0  0  0
  7 25  2  0  0  0  0
  1 25  1  0  0  0  0
  7  9  1  0  0  0  0
  1  6  2  0  0  0  0
  8 22  2  0  0  0  0
  9 22  1  0  0  0  0
  5  9  2  0  0  0  0
  5  6  1  0  0  0  0
  5 21  1  0  0  0  0
  4 21  1  0  0  0  0
  3  4  1  0  0  0  0
  4 20  2  0  0  0  0
  2  3  1  0  0  0  0
  2 18  1  0  0  0  0
  3 15  1  0  0  0  0
 18 19  1  0  0  0  0
 10 15  2  0  0  0  0
 15 16  1  0  0  0  0
 10 12  1  0  0  0  0
 16 19  1  0  0  0  0
 16 17  2  0  0  0  0
 11 12  1  0  0  0  0
 12 13  2  0  0  0  0
 13 17  1  0  0  0  0
 13 14  1  0  0  0  0
  2 26  1  0  0  0  0
  2 27  1  0  0  0  0
  3 28  1  0  0  0  0
  6 29  1  0  0  0  0
  8 30  1  0  0  0  0
 10 31  1  0  0  0  0
 17 32  1  0  0  0  0
 18 33  1  0  0  0  0
 18 34  1  0  0  0  0
 21 35  1  0  0  0  0
 22 36  1  0  0  0  0
 23 37  1  0  0  0  0
 24 38  1  0  0  0  0
 25 39  1  0  0  0  0
M  END
> <OPENEYE_ISO_SMILES>
c1ccc2c(c1)cncc2NC(=O)[C@@H]3CCOc4c3cc(c(c4)F)Cl

> <OPENEYE_INCHI>
InChI=1S/C19H14ClFN2O2/c20-15-7-14-13(5-6-25-18(14)8-16(15)21)19(24)23-17-10-22-9-11-3-1-2-4-12(11)17/h1-4,7-10,13H,5-6H2,(H,23,24)/t13-/m1/s1

> <OPENEYE_INCHIKEY>
NNQIVNFMEXUPCH-CYBMUJFWSA-N

> <FORMULA>
C19H14ClFN2O2

$$$$
