QJR
  -OEChem-05102419333D

 33 35  0     0  0  0  0  0  0999 V2000
    3.4850    2.1770   -1.1960 N   0  0  0  0  0  0  0  0  0  0  0  0
   -0.5630   -0.4780    1.7450 C   0  0  0  0  0  0  0  0  0  0  0  0
    0.4910    0.1550    0.8740 C   0  0  0  0  0  0  0  0  0  0  0  0
    2.7750    0.5120    0.3200 C   0  0  0  0  0  0  0  0  0  0  0  0
    2.5660    1.6820   -0.3790 C   0  0  0  0  0  0  0  0  0  0  0  0
    4.6460    1.6000   -1.3980 C   0  0  0  0  0  0  0  0  0  0  0  0
    6.1850   -0.2610   -0.9100 C   0  0  0  0  0  0  0  0  0  0  0  0
    4.0030   -0.1590    0.1480 C   0  0  0  0  0  0  0  0  0  0  0  0
   -3.7670   -0.7140   -0.2390 C   0  0  0  0  0  0  0  0  0  0  0  0
   -4.5030   -1.7760   -1.3990 Cl  0  0  0  0  0  0  0  0  0  0  0  0
   -4.4380    0.4210    0.1830 C   0  0  0  0  0  0  0  0  0  0  0  0
   -6.0140    0.7840   -0.4470 Cl  0  0  0  0  0  0  0  0  0  0  0  0
   -2.5140   -1.0050    0.2680 C   0  0  0  0  0  0  0  0  0  0  0  0
   -1.9290   -0.1600    1.1920 C   0  0  0  0  0  0  0  0  0  0  0  0
   -2.5960    0.9770    1.6100 C   0  0  0  0  0  0  0  0  0  0  0  0
   -3.8510    1.2660    1.1080 C   0  0  0  0  0  0  0  0  0  0  0  0
    0.1660    0.8010   -0.1000 O   0  0  0  0  0  0  0  0  0  0  0  0
    1.7960    0.0040    1.1770 N   0  0  0  0  0  0  0  0  0  0  0  0
    4.3230   -1.3540    0.8080 C   0  0  0  0  0  0  0  0  0  0  0  0
    5.5400   -1.9230    0.5710 C   0  0  0  0  0  0  0  0  0  0  0  0
    6.4170   -1.3780   -0.2600 N   0  0  0  0  0  0  0  0  0  0  0  0
    4.9610    0.4040   -0.7370 C   0  0  0  0  0  0  0  0  0  0  0  0
   -0.4210   -1.5580    1.7620 H   0  0  0  0  0  0  0  0  0  0  0  0
   -0.4810   -0.0850    2.7580 H   0  0  0  0  0  0  0  0  0  0  0  0
    1.6310    2.2090   -0.2570 H   0  0  0  0  0  0  0  0  0  0  0  0
    5.3600    2.0460   -2.0760 H   0  0  0  0  0  0  0  0  0  0  0  0
    6.9320    0.1450   -1.5760 H   0  0  0  0  0  0  0  0  0  0  0  0
   -1.9920   -1.8930   -0.0570 H   0  0  0  0  0  0  0  0  0  0  0  0
   -2.1380    1.6370    2.3320 H   0  0  0  0  0  0  0  0  0  0  0  0
   -4.3710    2.1550    1.4340 H   0  0  0  0  0  0  0  0  0  0  0  0
    2.0540   -0.4580    1.9900 H   0  0  0  0  0  0  0  0  0  0  0  0
    3.6220   -1.8140    1.4880 H   0  0  0  0  0  0  0  0  0  0  0  0
    5.7950   -2.8440    1.0740 H   0  0  0  0  0  0  0  0  0  0  0  0
  7 21  2  0  0  0  0
  7 22  1  0  0  0  0
 20 21  1  0  0  0  0
  1  6  2  0  0  0  0
  6 22  1  0  0  0  0
  1  5  1  0  0  0  0
  8 22  2  0  0  0  0
 19 20  2  0  0  0  0
  4  5  2  0  0  0  0
  8 19  1  0  0  0  0
  4  8  1  0  0  0  0
  4 18  1  0  0  0  0
  3 18  1  0  0  0  0
  2  3  1  0  0  0  0
  3 17  2  0  0  0  0
  2 14  1  0  0  0  0
 13 14  2  0  0  0  0
 14 15  1  0  0  0  0
  9 13  1  0  0  0  0
 15 16  2  0  0  0  0
  9 10  1  0  0  0  0
  9 11  2  0  0  0  0
 11 16  1  0  0  0  0
 11 12  1  0  0  0  0
  2 23  1  0  0  0  0
  2 24  1  0  0  0  0
  5 25  1  0  0  0  0
  6 26  1  0  0  0  0
  7 27  1  0  0  0  0
 13 28  1  0  0  0  0
 15 29  1  0  0  0  0
 16 30  1  0  0  0  0
 18 31  1  0  0  0  0
 19 32  1  0  0  0  0
 20 33  1  0  0  0  0
M  END
> <OPENEYE_ISO_SMILES>
c1cc(c(cc1CC(=O)Nc2cncc3c2ccnc3)Cl)Cl

> <OPENEYE_INCHI>
InChI=1S/C16H11Cl2N3O/c17-13-2-1-10(5-14(13)18)6-16(22)21-15-9-20-8-11-7-19-4-3-12(11)15/h1-5,7-9H,6H2,(H,21,22)

> <OPENEYE_INCHIKEY>
IOZNTHKFTJIBSE-UHFFFAOYSA-N

> <FORMULA>
C16H11Cl2N3O

$$$$
