QKB
  -OEChem-05102419333D

 39 42  0     1  0  0  0  0  0999 V2000
    0.4930   -0.6300    0.2780 N   0  0  0  0  0  0  0  0  0  0  0  0
    3.8890   -1.0900   -2.0740 C   0  0  0  0  0  0  0  0  0  0  0  0
    1.6290   -1.4270   -1.6970 C   0  0  0  0  0  0  0  0  0  0  0  0
    1.6540   -0.7660   -0.4870 C   0  0  0  0  0  0  0  0  0  0  0  0
   -0.5480   -1.4630    0.0780 C   0  0  0  0  0  0  0  0  0  0  0  0
   -1.7870   -1.3380    0.9250 C   0  0  1  0  0  0  0  0  0  0  0  0
   -3.9580   -2.4060    1.4900 C   0  0  0  0  0  0  0  0  0  0  0  0
   -4.1530    1.9030   -0.5620 C   0  0  0  0  0  0  0  0  0  0  0  0
   -2.0260    0.9670    0.0150 C   0  0  0  0  0  0  0  0  0  0  0  0
    2.8840   -0.2390   -0.0340 C   0  0  0  0  0  0  0  0  0  0  0  0
   -1.9980    3.4950   -0.9520 Cl  0  0  0  0  0  0  0  0  0  0  0  0
   -2.7780    2.0220   -0.4670 C   0  0  0  0  0  0  0  0  0  0  0  0
   -4.7710    0.7300   -0.1780 C   0  0  0  0  0  0  0  0  0  0  0  0
   -2.6410   -0.2110    0.4020 C   0  0  0  0  0  0  0  0  0  0  0  0
   -4.0170   -0.3340    0.3050 C   0  0  0  0  0  0  0  0  0  0  0  0
   -4.6610   -1.4740    0.6670 O   0  0  0  0  0  0  0  0  0  0  0  0
   -2.5750   -2.6490    0.8720 C   0  0  0  0  0  0  0  0  0  0  0  0
   -0.4860   -2.3130   -0.7850 O   0  0  0  0  0  0  0  0  0  0  0  0
    2.7200   -1.5650   -2.4350 N   0  0  0  0  0  0  0  0  0  0  0  0
    2.9990    0.4450    1.1830 C   0  0  0  0  0  0  0  0  0  0  0  0
    4.2130    0.9380    1.5640 C   0  0  0  0  0  0  0  0  0  0  0  0
    4.3260    1.5980    2.7370 F   0  0  0  0  0  0  0  0  0  0  0  0
    4.0280   -0.4050   -0.8570 C   0  0  0  0  0  0  0  0  0  0  0  0
    5.2600    0.1190   -0.4350 C   0  0  0  0  0  0  0  0  0  0  0  0
    5.3390    0.7760    0.7550 C   0  0  0  0  0  0  0  0  0  0  0  0
    0.4370    0.0610    0.9560 H   0  0  0  0  0  0  0  0  0  0  0  0
    4.7480   -1.2310   -2.7130 H   0  0  0  0  0  0  0  0  0  0  0  0
    0.6970   -1.8420   -2.0510 H   0  0  0  0  0  0  0  0  0  0  0  0
   -1.5020   -1.1280    1.9560 H   0  0  0  0  0  0  0  0  0  0  0  0
   -3.8440   -1.9960    2.4940 H   0  0  0  0  0  0  0  0  0  0  0  0
   -4.5100   -3.3440    1.5370 H   0  0  0  0  0  0  0  0  0  0  0  0
   -4.7420    2.7270   -0.9370 H   0  0  0  0  0  0  0  0  0  0  0  0
   -0.9520    1.0620    0.0890 H   0  0  0  0  0  0  0  0  0  0  0  0
   -5.8450    0.6380   -0.2530 H   0  0  0  0  0  0  0  0  0  0  0  0
   -2.6870   -2.9690   -0.1640 H   0  0  0  0  0  0  0  0  0  0  0  0
   -2.0490   -3.4170    1.4400 H   0  0  0  0  0  0  0  0  0  0  0  0
    2.1320    0.5870    1.8110 H   0  0  0  0  0  0  0  0  0  0  0  0
    6.1400    0.0010   -1.0500 H   0  0  0  0  0  0  0  0  0  0  0  0
    6.2880    1.1780    1.0780 H   0  0  0  0  0  0  0  0  0  0  0  0
 24 25  2  0  0  0  0
 21 25  1  0  0  0  0
 23 24  1  0  0  0  0
 21 22  1  0  0  0  0
 20 21  2  0  0  0  0
  2 23  2  0  0  0  0
 10 23  1  0  0  0  0
  2 19  1  0  0  0  0
 10 20  1  0  0  0  0
  4 10  2  0  0  0  0
  3 19  2  0  0  0  0
  3  4  1  0  0  0  0
  1  4  1  0  0  0  0
  1  5  1  0  0  0  0
  5  6  1  0  0  0  0
  5 18  2  0  0  0  0
  6 17  1  0  0  0  0
  6 14  1  0  0  0  0
  7 17  1  0  0  0  0
  9 14  2  0  0  0  0
 14 15  1  0  0  0  0
  7 16  1  0  0  0  0
  9 12  1  0  0  0  0
 15 16  1  0  0  0  0
 13 15  2  0  0  0  0
 11 12  1  0  0  0  0
  8 12  2  0  0  0  0
  8 13  1  0  0  0  0
  1 26  1  0  0  0  0
  2 27  1  0  0  0  0
  3 28  1  0  0  0  0
  6 29  1  0  0  0  0
  7 30  1  0  0  0  0
  7 31  1  0  0  0  0
  8 32  1  0  0  0  0
  9 33  1  0  0  0  0
 13 34  1  0  0  0  0
 17 35  1  0  0  0  0
 17 36  1  0  0  0  0
 20 37  1  0  0  0  0
 24 38  1  0  0  0  0
 25 39  1  0  0  0  0
M  END
> <OPENEYE_ISO_SMILES>
c1cc2cncc(c2cc1F)NC(=O)[C@@H]3CCOc4c3cc(cc4)Cl

> <OPENEYE_INCHI>
InChI=1S/C19H14ClFN2O2/c20-12-2-4-18-16(7-12)14(5-6-25-18)19(24)23-17-10-22-9-11-1-3-13(21)8-15(11)17/h1-4,7-10,14H,5-6H2,(H,23,24)/t14-/m1/s1

> <OPENEYE_INCHIKEY>
YVSNGUCAHVBFFA-CQSZACIVSA-N

> <FORMULA>
C19H14ClFN2O2

$$$$
