QKR
  -OEChem-05102419333D

 34 36  0     0  0  0  0  0  0999 V2000
    3.3060    2.6510   -0.1510 N   0  0  0  0  0  0  0  0  0  0  0  0
    4.5890    2.4310    0.0170 C   0  0  0  0  0  0  0  0  0  0  0  0
    5.0750    1.1150    0.0960 C   0  0  0  0  0  0  0  0  0  0  0  0
    6.4390    0.8350    0.2750 C   0  0  0  0  0  0  0  0  0  0  0  0
    6.8550   -0.4600    0.3450 C   0  0  0  0  0  0  0  0  0  0  0  0
    5.9480   -1.5130    0.2420 C   0  0  0  0  0  0  0  0  0  0  0  0
    4.1540    0.0410   -0.0080 C   0  0  0  0  0  0  0  0  0  0  0  0
   -3.5290    0.1620   -1.7560 C   0  0  0  0  0  0  0  0  0  0  0  0
   -3.8800    0.0010    0.6100 C   0  0  0  0  0  0  0  0  0  0  0  0
   -4.8780    0.2720    2.0040 Cl  0  0  0  0  0  0  0  0  0  0  0  0
   -4.3260    0.3780   -0.6460 C   0  0  0  0  0  0  0  0  0  0  0  0
   -5.8840    1.1230   -0.8260 Cl  0  0  0  0  0  0  0  0  0  0  0  0
   -2.2920   -0.4360   -1.6120 C   0  0  0  0  0  0  0  0  0  0  0  0
   -2.6430   -0.6030    0.7510 C   0  0  0  0  0  0  0  0  0  0  0  0
   -1.8490   -0.8180   -0.3590 C   0  0  0  0  0  0  0  0  0  0  0  0
   -0.5020   -1.4760   -0.2050 C   0  0  0  0  0  0  0  0  0  0  0  0
   -0.5330   -2.3530    0.8840 F   0  0  0  0  0  0  0  0  0  0  0  0
   -0.1950   -2.1890   -1.3690 F   0  0  0  0  0  0  0  0  0  0  0  0
    0.5490   -0.4210    0.0290 C   0  0  0  0  0  0  0  0  0  0  0  0
    0.2380    0.6470    0.5110 O   0  0  0  0  0  0  0  0  0  0  0  0
    1.8340   -0.6660   -0.2960 N   0  0  0  0  0  0  0  0  0  0  0  0
    2.7870    0.3490   -0.1870 C   0  0  0  0  0  0  0  0  0  0  0  0
    4.6170   -1.2780    0.0680 C   0  0  0  0  0  0  0  0  0  0  0  0
    2.4160    1.6760   -0.2530 C   0  0  0  0  0  0  0  0  0  0  0  0
    5.2730    3.2630    0.0940 H   0  0  0  0  0  0  0  0  0  0  0  0
    7.1530    1.6410    0.3550 H   0  0  0  0  0  0  0  0  0  0  0  0
    7.9050   -0.6740    0.4810 H   0  0  0  0  0  0  0  0  0  0  0  0
    6.3060   -2.5300    0.3010 H   0  0  0  0  0  0  0  0  0  0  0  0
   -3.8770    0.4560   -2.7350 H   0  0  0  0  0  0  0  0  0  0  0  0
   -1.6700   -0.6050   -2.4790 H   0  0  0  0  0  0  0  0  0  0  0  0
   -2.2980   -0.9060    1.7280 H   0  0  0  0  0  0  0  0  0  0  0  0
    2.0960   -1.5470   -0.6050 H   0  0  0  0  0  0  0  0  0  0  0  0
    3.9250   -2.1040   -0.0110 H   0  0  0  0  0  0  0  0  0  0  0  0
    1.3740    1.9250   -0.3900 H   0  0  0  0  0  0  0  0  0  0  0  0
  4  5  2  0  0  0  0
  3  4  1  0  0  0  0
  5  6  1  0  0  0  0
  1  2  2  0  0  0  0
  2  3  1  0  0  0  0
  1 24  1  0  0  0  0
  3  7  2  0  0  0  0
  6 23  2  0  0  0  0
 22 24  2  0  0  0  0
  7 23  1  0  0  0  0
  7 22  1  0  0  0  0
 21 22  1  0  0  0  0
 19 21  1  0  0  0  0
 16 17  1  0  0  0  0
 16 18  1  0  0  0  0
 16 19  1  0  0  0  0
 19 20  2  0  0  0  0
 15 16  1  0  0  0  0
 14 15  2  0  0  0  0
 13 15  1  0  0  0  0
  9 14  1  0  0  0  0
  8 13  2  0  0  0  0
  9 10  1  0  0  0  0
  9 11  2  0  0  0  0
  8 11  1  0  0  0  0
 11 12  1  0  0  0  0
  2 25  1  0  0  0  0
  4 26  1  0  0  0  0
  5 27  1  0  0  0  0
  6 28  1  0  0  0  0
  8 29  1  0  0  0  0
 13 30  1  0  0  0  0
 14 31  1  0  0  0  0
 21 32  1  0  0  0  0
 23 33  1  0  0  0  0
 24 34  1  0  0  0  0
M  END
> <OPENEYE_ISO_SMILES>
c1ccc2c(c1)cncc2NC(=O)C(c3ccc(c(c3)Cl)Cl)(F)F

> <OPENEYE_INCHI>
InChI=1S/C17H10Cl2F2N2O/c18-13-6-5-11(7-14(13)19)17(20,21)16(24)23-15-9-22-8-10-3-1-2-4-12(10)15/h1-9H,(H,23,24)

> <OPENEYE_INCHIKEY>
RSRGRXAYHCGNSK-UHFFFAOYSA-N

> <FORMULA>
C17H10Cl2F2N2O

$$$$
