QL3
  -OEChem-05102419333D

 53 56  0     0  0  0  0  0  0999 V2000
    3.3740    1.5130   -0.4050 N   0  0  0  0  0  0  0  0  0  0  0  0
   -4.8430   -0.8010    2.1770 N   0  0  0  0  0  0  0  0  0  0  0  0
    0.8440    1.9990    0.5330 C   0  0  0  0  0  0  0  0  0  0  0  0
    1.0990    0.9220   -0.3150 C   0  0  0  0  0  0  0  0  0  0  0  0
    2.3930    0.7100   -0.7670 C   0  0  0  0  0  0  0  0  0  0  0  0
    0.3090   -0.9750   -1.7080 C   0  0  0  0  0  0  0  0  0  0  0  0
    0.6990   -2.2560   -1.0170 C   0  0  0  0  0  0  0  0  0  0  0  0
    0.1060   -4.4090   -0.1530 C   0  0  0  0  0  0  0  0  0  0  0  0
    2.0060   -2.4530   -0.6140 C   0  0  0  0  0  0  0  0  0  0  0  0
   -2.2500   -0.7900   -0.4990 C   0  0  0  0  0  0  0  0  0  0  0  0
   -3.7560   -1.0760    1.4680 C   0  0  0  0  0  0  0  0  0  0  0  0
   -6.4880    1.7260    0.1320 C   0  0  0  0  0  0  0  0  0  0  0  0
   -6.2650    2.3700   -1.0470 C   0  0  0  0  0  0  0  0  0  0  0  0
   -5.1310    2.1000   -1.8120 C   0  0  0  0  0  0  0  0  0  0  0  0
   -4.4070    0.5010   -0.1940 C   0  0  0  0  0  0  0  0  0  0  0  0
   -1.3900    1.1100    0.6070 O   0  0  0  0  0  0  0  0  0  0  0  0
   -1.1630    0.1970   -0.1590 C   0  0  0  0  0  0  0  0  0  0  0  0
   -3.4940   -0.4570    0.2840 C   0  0  0  0  0  0  0  0  0  0  0  0
   -4.2110    1.1830   -1.4030 C   0  0  0  0  0  0  0  0  0  0  0  0
   -5.5610    0.7750    0.5860 C   0  0  0  0  0  0  0  0  0  0  0  0
   -5.7370    0.0800    1.7930 C   0  0  0  0  0  0  0  0  0  0  0  0
    0.0620    0.0650   -0.7050 N   0  0  0  0  0  0  0  0  0  0  0  0
    2.3640   -3.6300    0.0210 C   0  0  0  0  0  0  0  0  0  0  0  0
    4.0050   -3.8780    0.5280 Cl  0  0  0  0  0  0  0  0  0  0  0  0
    1.4130   -4.6080    0.2510 C   0  0  0  0  0  0  0  0  0  0  0  0
   -0.2520   -3.2320   -0.7810 C   0  0  0  0  0  0  0  0  0  0  0  0
    1.8980    2.8190    0.8910 C   0  0  0  0  0  0  0  0  0  0  0  0
    3.1680    2.5450    0.3980 C   0  0  0  0  0  0  0  0  0  0  0  0
    4.2390    3.3660    0.7550 N   0  0  0  0  0  0  0  0  0  0  0  0
    5.4510    3.1730    0.1980 C   0  0  0  0  0  0  0  0  0  0  0  0
    5.5900    2.3480   -0.6800 O   0  0  0  0  0  0  0  0  0  0  0  0
    6.6320    3.9830    0.6660 C   0  0  0  0  0  0  0  0  0  0  0  0
   -0.1540    2.1880    0.9000 H   0  0  0  0  0  0  0  0  0  0  0  0
    2.5990   -0.1220   -1.4250 H   0  0  0  0  0  0  0  0  0  0  0  0
    1.1160   -0.6580   -2.3680 H   0  0  0  0  0  0  0  0  0  0  0  0
   -0.5970   -1.1380   -2.2920 H   0  0  0  0  0  0  0  0  0  0  0  0
   -0.6360   -5.1730    0.0270 H   0  0  0  0  0  0  0  0  0  0  0  0
    2.7480   -1.6890   -0.7940 H   0  0  0  0  0  0  0  0  0  0  0  0
   -2.4670   -0.7380   -1.5660 H   0  0  0  0  0  0  0  0  0  0  0  0
   -1.9190   -1.7970   -0.2440 H   0  0  0  0  0  0  0  0  0  0  0  0
   -3.0590   -1.8120    1.8410 H   0  0  0  0  0  0  0  0  0  0  0  0
   -7.3710    1.9460    0.7130 H   0  0  0  0  0  0  0  0  0  0  0  0
   -6.9790    3.1020   -1.3960 H   0  0  0  0  0  0  0  0  0  0  0  0
   -4.9810    2.6260   -2.7430 H   0  0  0  0  0  0  0  0  0  0  0  0
   -3.3370    0.9840   -2.0050 H   0  0  0  0  0  0  0  0  0  0  0  0
   -6.6070    0.2690    2.4050 H   0  0  0  0  0  0  0  0  0  0  0  0
    1.6920   -5.5260    0.7460 H   0  0  0  0  0  0  0  0  0  0  0  0
   -1.2740   -3.0750   -1.0930 H   0  0  0  0  0  0  0  0  0  0  0  0
    1.7360    3.6620    1.5460 H   0  0  0  0  0  0  0  0  0  0  0  0
    4.1100    4.0760    1.4040 H   0  0  0  0  0  0  0  0  0  0  0  0
    7.5190    3.6900    0.1040 H   0  0  0  0  0  0  0  0  0  0  0  0
    6.4340    5.0420    0.5040 H   0  0  0  0  0  0  0  0  0  0  0  0
    6.7990    3.8020    1.7280 H   0  0  0  0  0  0  0  0  0  0  0  0
 30 32  1  0  0  0  0
 30 31  2  0  0  0  0
 29 30  1  0  0  0  0
 28 29  1  0  0  0  0
 12 13  2  0  0  0  0
 12 20  1  0  0  0  0
 20 21  2  0  0  0  0
  2 21  1  0  0  0  0
 13 14  1  0  0  0  0
 15 20  1  0  0  0  0
  2 11  2  0  0  0  0
 14 19  2  0  0  0  0
 15 19  1  0  0  0  0
 15 18  2  0  0  0  0
 11 18  1  0  0  0  0
  1 28  2  0  0  0  0
 27 28  1  0  0  0  0
 10 18  1  0  0  0  0
  1  5  1  0  0  0  0
  3 27  2  0  0  0  0
 10 17  1  0  0  0  0
  4  5  2  0  0  0  0
  3  4  1  0  0  0  0
  4 22  1  0  0  0  0
 17 22  1  0  0  0  0
 16 17  2  0  0  0  0
  6 22  1  0  0  0  0
  6  7  1  0  0  0  0
  7  9  2  0  0  0  0
  9 23  1  0  0  0  0
  7 26  1  0  0  0  0
 23 24  1  0  0  0  0
 23 25  2  0  0  0  0
  8 26  2  0  0  0  0
  8 25  1  0  0  0  0
  3 33  1  0  0  0  0
  5 34  1  0  0  0  0
  6 35  1  0  0  0  0
  6 36  1  0  0  0  0
  8 37  1  0  0  0  0
  9 38  1  0  0  0  0
 10 39  1  0  0  0  0
 10 40  1  0  0  0  0
 11 41  1  0  0  0  0
 12 42  1  0  0  0  0
 13 43  1  0  0  0  0
 14 44  1  0  0  0  0
 19 45  1  0  0  0  0
 21 46  1  0  0  0  0
 25 47  1  0  0  0  0
 26 48  1  0  0  0  0
 27 49  1  0  0  0  0
 29 50  1  0  0  0  0
 32 51  1  0  0  0  0
 32 52  1  0  0  0  0
 32 53  1  0  0  0  0
M  END
> <OPENEYE_ISO_SMILES>
CC(=O)Nc1ccc(cn1)N(Cc2cccc(c2)Cl)C(=O)Cc3cncc4c3cccc4

> <OPENEYE_INCHI>
InChI=1S/C25H21ClN4O2/c1-17(31)29-24-10-9-22(15-28-24)30(16-18-5-4-7-21(26)11-18)25(32)12-20-14-27-13-19-6-2-3-8-23(19)20/h2-11,13-15H,12,16H2,1H3,(H,28,29,31)

> <OPENEYE_INCHIKEY>
LTNIKFLJOUNFAI-UHFFFAOYSA-N

> <FORMULA>
C25H21ClN4O2

$$$$
