QLO
  -OEChem-05102419333D

 49 52  0     1  0  0  0  0  0999 V2000
    0.6780    0.0400   -0.2550 N   0  0  0  0  0  0  0  0  0  0  0  0
   -2.2230   -2.2830   -0.7360 C   0  0  0  0  0  0  0  0  0  0  0  0
   -2.7110   -1.8170   -2.1140 C   0  0  0  0  0  0  0  0  0  0  0  0
   -3.3790    0.2280   -1.0780 C   0  0  0  0  0  0  0  0  0  0  0  0
   -4.1330    1.3950   -1.1460 C   0  0  0  0  0  0  0  0  0  0  0  0
   -3.8550    2.4510   -0.3020 C   0  0  0  0  0  0  0  0  0  0  0  0
   -2.0720    1.1930    0.6820 C   0  0  0  0  0  0  0  0  0  0  0  0
    1.9210    0.2280   -0.8630 C   0  0  0  0  0  0  0  0  0  0  0  0
    4.3350    0.5630   -2.1610 C   0  0  0  0  0  0  0  0  0  0  0  0
    5.3560    1.4100   -0.0940 C   0  0  0  0  0  0  0  0  0  0  0  0
    2.9120    1.0730    1.2260 C   0  0  0  0  0  0  0  0  0  0  0  0
    3.0150    0.7360   -0.1290 C   0  0  0  0  0  0  0  0  0  0  0  0
    0.1160   -1.5180   -1.7310 O   0  0  0  0  0  0  0  0  0  0  0  0
   -0.1780   -0.8800   -0.7430 C   0  0  0  0  0  0  0  0  0  0  0  0
   -1.5020   -1.1140   -0.0610 C   0  0  1  0  0  0  0  0  0  0  0  0
   -2.3460    0.1310   -0.1630 C   0  0  0  0  0  0  0  0  0  0  0  0
   -2.8240    2.3510    0.6140 C   0  0  0  0  0  0  0  0  0  0  0  0
   -2.4730    3.6780    1.6760 Cl  0  0  0  0  0  0  0  0  0  0  0  0
   -3.6870   -0.7910   -1.9220 O   0  0  0  0  0  0  0  0  0  0  0  0
   -1.2620   -1.4460    1.4130 C   0  0  0  0  0  0  0  0  0  0  0  0
   -0.3680   -2.6550    1.5170 C   0  0  0  0  0  0  0  0  0  0  0  0
    0.1130   -3.1410    0.5160 O   0  0  0  0  0  0  0  0  0  0  0  0
   -0.1040   -3.1970    2.7230 N   0  0  0  0  0  0  0  0  0  0  0  0
    0.7650   -4.3720    2.8240 C   0  0  0  0  0  0  0  0  0  0  0  0
    4.0030    1.5590    1.8820 C   0  0  0  0  0  0  0  0  0  0  0  0
    5.2200    1.7270    1.2230 C   0  0  0  0  0  0  0  0  0  0  0  0
    4.2530    0.9060   -0.8020 C   0  0  0  0  0  0  0  0  0  0  0  0
    3.2830    0.0900   -2.7870 N   0  0  0  0  0  0  0  0  0  0  0  0
    2.1100   -0.0830   -2.1940 C   0  0  0  0  0  0  0  0  0  0  0  0
    0.4330    0.5670    0.5210 H   0  0  0  0  0  0  0  0  0  0  0  0
   -3.0750   -2.5890   -0.1280 H   0  0  0  0  0  0  0  0  0  0  0  0
   -1.5360   -3.1210   -0.8540 H   0  0  0  0  0  0  0  0  0  0  0  0
   -1.8710   -1.4230   -2.6860 H   0  0  0  0  0  0  0  0  0  0  0  0
   -3.1590   -2.6550   -2.6470 H   0  0  0  0  0  0  0  0  0  0  0  0
   -4.9390    1.4750   -1.8610 H   0  0  0  0  0  0  0  0  0  0  0  0
   -4.4430    3.3560   -0.3580 H   0  0  0  0  0  0  0  0  0  0  0  0
   -1.2670    1.1160    1.3980 H   0  0  0  0  0  0  0  0  0  0  0  0
    5.2670    0.6840   -2.6920 H   0  0  0  0  0  0  0  0  0  0  0  0
    6.3050    1.5450   -0.5910 H   0  0  0  0  0  0  0  0  0  0  0  0
    1.9750    0.9480    1.7480 H   0  0  0  0  0  0  0  0  0  0  0  0
   -0.7850   -0.5980    1.9040 H   0  0  0  0  0  0  0  0  0  0  0  0
   -2.2160   -1.6570    1.8980 H   0  0  0  0  0  0  0  0  0  0  0  0
   -0.4890   -2.8080    3.5240 H   0  0  0  0  0  0  0  0  0  0  0  0
    0.3310   -5.1940    2.2550 H   0  0  0  0  0  0  0  0  0  0  0  0
    1.7490   -4.1320    2.4220 H   0  0  0  0  0  0  0  0  0  0  0  0
    0.8610   -4.6640    3.8690 H   0  0  0  0  0  0  0  0  0  0  0  0
    3.9240    1.8190    2.9270 H   0  0  0  0  0  0  0  0  0  0  0  0
    6.0690    2.1140    1.7660 H   0  0  0  0  0  0  0  0  0  0  0  0
    1.2830   -0.4770   -2.7660 H   0  0  0  0  0  0  0  0  0  0  0  0
 10 26  2  0  0  0  0
 10 27  1  0  0  0  0
 25 26  1  0  0  0  0
  9 27  2  0  0  0  0
  9 28  1  0  0  0  0
 12 27  1  0  0  0  0
 11 25  2  0  0  0  0
 23 24  1  0  0  0  0
 21 22  2  0  0  0  0
 28 29  2  0  0  0  0
 11 12  1  0  0  0  0
  8 12  2  0  0  0  0
  8 29  1  0  0  0  0
  1  8  1  0  0  0  0
 21 23  1  0  0  0  0
 20 21  1  0  0  0  0
  1 14  1  0  0  0  0
 15 20  1  0  0  0  0
 14 15  1  0  0  0  0
 13 14  2  0  0  0  0
  2 15  1  0  0  0  0
 15 16  1  0  0  0  0
  2  3  1  0  0  0  0
  3 19  1  0  0  0  0
  7 16  2  0  0  0  0
  4 16  1  0  0  0  0
  7 17  1  0  0  0  0
  4 19  1  0  0  0  0
  4  5  2  0  0  0  0
 17 18  1  0  0  0  0
  6 17  2  0  0  0  0
  5  6  1  0  0  0  0
  1 30  1  0  0  0  0
  2 31  1  0  0  0  0
  2 32  1  0  0  0  0
  3 33  1  0  0  0  0
  3 34  1  0  0  0  0
  5 35  1  0  0  0  0
  6 36  1  0  0  0  0
  7 37  1  0  0  0  0
  9 38  1  0  0  0  0
 10 39  1  0  0  0  0
 11 40  1  0  0  0  0
 20 41  1  0  0  0  0
 20 42  1  0  0  0  0
 23 43  1  0  0  0  0
 24 44  1  0  0  0  0
 24 45  1  0  0  0  0
 24 46  1  0  0  0  0
 25 47  1  0  0  0  0
 26 48  1  0  0  0  0
 29 49  1  0  0  0  0
M  END
> <OPENEYE_ISO_SMILES>
CNC(=O)C[C@]1(CCOc2c1cc(cc2)Cl)C(=O)Nc3cncc4c3cccc4

> <OPENEYE_INCHI>
InChI=1S/C22H20ClN3O3/c1-24-20(27)11-22(8-9-29-19-7-6-15(23)10-17(19)22)21(28)26-18-13-25-12-14-4-2-3-5-16(14)18/h2-7,10,12-13H,8-9,11H2,1H3,(H,24,27)(H,26,28)/t22-/m0/s1

> <OPENEYE_INCHIKEY>
WFJMXJRCQHLHHH-QFIPXVFZSA-N

> <FORMULA>
C22H20ClN3O3

$$$$
