QM3
  -OEChem-05102419333D

 42 46  0     1  0  0  0  0  0999 V2000
    4.4470   -1.7280   -0.2990 N   0  0  0  0  0  0  0  0  0  0  0  0
   -2.4930   -2.9820   -1.0960 C   0  0  0  0  0  0  0  0  0  0  0  0
   -1.8560   -2.8930    0.2980 C   0  0  0  0  0  0  0  0  0  0  0  0
   -1.2950   -1.4860    0.4800 C   0  0  1  0  0  0  0  0  0  0  0  0
   -0.8870   -1.2600    1.9450 C   0  0  0  0  0  0  0  0  0  0  0  0
    0.6010   -0.9930    1.8570 C   0  0  0  0  0  0  0  0  0  0  0  0
    2.3070   -0.8490    0.1690 C   0  0  0  0  0  0  0  0  0  0  0  0
    4.1220    0.5890   -0.5670 C   0  0  0  0  0  0  0  0  0  0  0  0
    3.7720    2.9380   -0.8330 C   0  0  0  0  0  0  0  0  0  0  0  0
    1.9400    1.5710   -0.1030 C   0  0  0  0  0  0  0  0  0  0  0  0
   -2.1290    0.8600    0.4600 C   0  0  0  0  0  0  0  0  0  0  0  0
    0.1140   -1.4250   -1.4890 O   0  0  0  0  0  0  0  0  0  0  0  0
   -0.0060   -1.3250   -0.2870 C   0  0  0  0  0  0  0  0  0  0  0  0
   -3.5910   -2.0710   -1.1510 O   0  0  0  0  0  0  0  0  0  0  0  0
   -2.2980   -0.4520    0.0530 C   0  0  0  0  0  0  0  0  0  0  0  0
   -3.3840   -0.7930   -0.7370 C   0  0  0  0  0  0  0  0  0  0  0  0
   -4.2930    0.1870   -1.1200 C   0  0  0  0  0  0  0  0  0  0  0  0
   -4.1180    1.4940   -0.7140 C   0  0  0  0  0  0  0  0  0  0  0  0
   -3.0350    1.8320    0.0780 C   0  0  0  0  0  0  0  0  0  0  0  0
   -2.8140    3.4750    0.5920 Cl  0  0  0  0  0  0  0  0  0  0  0  0
    0.9840   -1.0530    0.5750 N   0  0  0  0  0  0  0  0  0  0  0  0
    1.3300   -0.7620    2.7980 O   0  0  0  0  0  0  0  0  0  0  0  0
    2.7690    0.4440   -0.1630 C   0  0  0  0  0  0  0  0  0  0  0  0
    2.4440    2.7930   -0.4350 C   0  0  0  0  0  0  0  0  0  0  0  0
    4.6060    1.8630   -0.9020 C   0  0  0  0  0  0  0  0  0  0  0  0
    4.9360   -0.5540   -0.6200 C   0  0  0  0  0  0  0  0  0  0  0  0
    3.1900   -1.9040    0.0840 C   0  0  0  0  0  0  0  0  0  0  0  0
   -1.7560   -2.7130   -1.8520 H   0  0  0  0  0  0  0  0  0  0  0  0
   -2.8490   -3.9960   -1.2750 H   0  0  0  0  0  0  0  0  0  0  0  0
   -2.6110   -3.0880    1.0600 H   0  0  0  0  0  0  0  0  0  0  0  0
   -1.0520   -3.6240    0.3820 H   0  0  0  0  0  0  0  0  0  0  0  0
   -1.4090   -0.3980    2.3610 H   0  0  0  0  0  0  0  0  0  0  0  0
   -1.0860   -2.1520    2.5410 H   0  0  0  0  0  0  0  0  0  0  0  0
    4.1450    3.9180   -1.0900 H   0  0  0  0  0  0  0  0  0  0  0  0
    0.9090    1.4720    0.2030 H   0  0  0  0  0  0  0  0  0  0  0  0
   -1.2840    1.1260    1.0780 H   0  0  0  0  0  0  0  0  0  0  0  0
   -5.1390   -0.0760   -1.7390 H   0  0  0  0  0  0  0  0  0  0  0  0
   -4.8260    2.2530   -1.0130 H   0  0  0  0  0  0  0  0  0  0  0  0
    1.8050    3.6620   -0.3890 H   0  0  0  0  0  0  0  0  0  0  0  0
    5.6330    1.9910   -1.2110 H   0  0  0  0  0  0  0  0  0  0  0  0
    5.9680   -0.4660   -0.9240 H   0  0  0  0  0  0  0  0  0  0  0  0
    2.8490   -2.8980    0.3340 H   0  0  0  0  0  0  0  0  0  0  0  0
  6 22  2  0  0  0  0
  9 25  2  0  0  0  0
  8 25  1  0  0  0  0
  9 24  1  0  0  0  0
  8 26  2  0  0  0  0
  1 26  1  0  0  0  0
  8 23  1  0  0  0  0
  1 27  2  0  0  0  0
 10 24  2  0  0  0  0
 10 23  1  0  0  0  0
  7 23  2  0  0  0  0
  7 27  1  0  0  0  0
  6 21  1  0  0  0  0
  5  6  1  0  0  0  0
  7 21  1  0  0  0  0
 13 21  1  0  0  0  0
  4  5  1  0  0  0  0
  4 13  1  0  0  0  0
 12 13  2  0  0  0  0
  3  4  1  0  0  0  0
  4 15  1  0  0  0  0
  2  3  1  0  0  0  0
 11 15  2  0  0  0  0
 11 19  1  0  0  0  0
 15 16  1  0  0  0  0
  2 14  1  0  0  0  0
 19 20  1  0  0  0  0
 18 19  2  0  0  0  0
 14 16  1  0  0  0  0
 16 17  2  0  0  0  0
 17 18  1  0  0  0  0
  2 28  1  0  0  0  0
  2 29  1  0  0  0  0
  3 30  1  0  0  0  0
  3 31  1  0  0  0  0
  5 32  1  0  0  0  0
  5 33  1  0  0  0  0
  9 34  1  0  0  0  0
 10 35  1  0  0  0  0
 11 36  1  0  0  0  0
 17 37  1  0  0  0  0
 18 38  1  0  0  0  0
 24 39  1  0  0  0  0
 25 40  1  0  0  0  0
 26 41  1  0  0  0  0
 27 42  1  0  0  0  0
M  END
> <OPENEYE_ISO_SMILES>
c1ccc2c(c1)cncc2N3C(=O)C[C@@]4(C3=O)CCOc5c4cc(cc5)Cl

> <OPENEYE_INCHI>
InChI=1S/C21H15ClN2O3/c22-14-5-6-18-16(9-14)21(7-8-27-18)10-19(25)24(20(21)26)17-12-23-11-13-3-1-2-4-15(13)17/h1-6,9,11-12H,7-8,10H2/t21-/m0/s1

> <OPENEYE_INCHIKEY>
QOLVOMOIQPMUFC-NRFANRHFSA-N

> <FORMULA>
C21H15ClN2O3

$$$$
