QM9
  -OEChem-05102419333D

 41 44  0     1  0  0  0  0  0999 V2000
   -0.8370   -0.1620   -0.3170 N   0  0  0  0  0  0  0  0  0  0  0  0
   -4.3510   -0.6220    1.8550 C   0  0  0  0  0  0  0  0  0  0  0  0
   -4.4170    0.1010    0.6540 C   0  0  0  0  0  0  0  0  0  0  0  0
   -5.6190    0.6570    0.1860 C   0  0  0  0  0  0  0  0  0  0  0  0
   -5.6260    1.3500   -0.9860 C   0  0  0  0  0  0  0  0  0  0  0  0
   -4.4590    1.5170   -1.7300 C   0  0  0  0  0  0  0  0  0  0  0  0
   -3.2310    0.2720   -0.1050 C   0  0  0  0  0  0  0  0  0  0  0  0
    3.4140   -0.9410    0.2280 C   0  0  0  0  0  0  0  0  0  0  0  0
    4.2570    1.1760    0.9880 C   0  0  0  0  0  0  0  0  0  0  0  0
    2.2570    1.0830   -0.3260 C   0  0  0  0  0  0  0  0  0  0  0  0
    3.5560   -2.2910    0.1800 O   0  0  0  0  0  0  0  0  0  0  0  0
   -3.2760    0.9910   -1.3070 C   0  0  0  0  0  0  0  0  0  0  0  0
    1.3080   -1.0640   -1.1560 C   0  0  1  0  0  0  0  0  0  0  0  0
    3.0620    3.5470    0.4540 Cl  0  0  0  0  0  0  0  0  0  0  0  0
   -2.0800   -0.9890    1.5790 C   0  0  0  0  0  0  0  0  0  0  0  0
   -0.1250   -2.1460    0.3760 O   0  0  0  0  0  0  0  0  0  0  0  0
   -2.0360   -0.2970    0.3870 C   0  0  0  0  0  0  0  0  0  0  0  0
    0.0640   -1.1640   -0.3110 C   0  0  0  0  0  0  0  0  0  0  0  0
    0.9920   -0.3640   -2.4080 N   0  0  0  0  0  0  0  0  0  0  0  0
    2.3590   -0.2960   -0.3960 C   0  0  0  0  0  0  0  0  0  0  0  0
    3.2010    1.8180    0.3660 C   0  0  0  0  0  0  0  0  0  0  0  0
    4.3640   -0.1980    0.9200 C   0  0  0  0  0  0  0  0  0  0  0  0
    2.4180   -3.0690   -0.1950 C   0  0  0  0  0  0  0  0  0  0  0  0
   -3.2080   -1.1270    2.2600 N   0  0  0  0  0  0  0  0  0  0  0  0
    1.8210   -2.4680   -1.4730 C   0  0  0  0  0  0  0  0  0  0  0  0
   -0.6550    0.6510   -0.8140 H   0  0  0  0  0  0  0  0  0  0  0  0
   -5.2410   -0.7600    2.4510 H   0  0  0  0  0  0  0  0  0  0  0  0
   -6.5310    0.5360    0.7520 H   0  0  0  0  0  0  0  0  0  0  0  0
   -6.5500    1.7780   -1.3450 H   0  0  0  0  0  0  0  0  0  0  0  0
   -4.4940    2.0700   -2.6570 H   0  0  0  0  0  0  0  0  0  0  0  0
    4.9970    1.7500    1.5270 H   0  0  0  0  0  0  0  0  0  0  0  0
    1.4330    1.5860   -0.8110 H   0  0  0  0  0  0  0  0  0  0  0  0
   -2.3790    1.1270   -1.8930 H   0  0  0  0  0  0  0  0  0  0  0  0
   -1.1740   -1.4290    1.9670 H   0  0  0  0  0  0  0  0  0  0  0  0
    0.6500    0.5670   -2.2260 H   0  0  0  0  0  0  0  0  0  0  0  0
    1.7920   -0.3420   -3.0220 H   0  0  0  0  0  0  0  0  0  0  0  0
    5.1880   -0.6980    1.4070 H   0  0  0  0  0  0  0  0  0  0  0  0
    2.7230   -4.0990   -0.3810 H   0  0  0  0  0  0  0  0  0  0  0  0
    1.6770   -3.0450    0.6040 H   0  0  0  0  0  0  0  0  0  0  0  0
    0.9980   -3.0890   -1.8270 H   0  0  0  0  0  0  0  0  0  0  0  0
    2.5950   -2.4120   -2.2390 H   0  0  0  0  0  0  0  0  0  0  0  0
  4  5  2  0  0  0  0
  3  4  1  0  0  0  0
  5  6  1  0  0  0  0
  2  3  2  0  0  0  0
  2 24  1  0  0  0  0
  3  7  1  0  0  0  0
  6 12  2  0  0  0  0
 15 24  2  0  0  0  0
  7 12  1  0  0  0  0
  7 17  2  0  0  0  0
 15 17  1  0  0  0  0
  1 17  1  0  0  0  0
  1 18  1  0  0  0  0
 13 19  1  0  0  0  0
 13 18  1  0  0  0  0
 16 18  2  0  0  0  0
 13 25  1  0  0  0  0
 13 20  1  0  0  0  0
 23 25  1  0  0  0  0
 10 20  2  0  0  0  0
  8 20  1  0  0  0  0
 11 23  1  0  0  0  0
 10 21  1  0  0  0  0
  8 11  1  0  0  0  0
  8 22  2  0  0  0  0
 14 21  1  0  0  0  0
  9 21  2  0  0  0  0
  9 22  1  0  0  0  0
  1 26  1  0  0  0  0
  2 27  1  0  0  0  0
  4 28  1  0  0  0  0
  5 29  1  0  0  0  0
  6 30  1  0  0  0  0
  9 31  1  0  0  0  0
 10 32  1  0  0  0  0
 12 33  1  0  0  0  0
 15 34  1  0  0  0  0
 19 35  1  0  0  0  0
 19 36  1  0  0  0  0
 22 37  1  0  0  0  0
 23 38  1  0  0  0  0
 23 39  1  0  0  0  0
 25 40  1  0  0  0  0
 25 41  1  0  0  0  0
M  END
> <OPENEYE_ISO_SMILES>
c1ccc2c(c1)cncc2NC(=O)[C@@]3(CCOc4c3cc(cc4)Cl)N

> <OPENEYE_INCHI>
InChI=1S/C19H16ClN3O2/c20-13-5-6-17-15(9-13)19(21,7-8-25-17)18(24)23-16-11-22-10-12-3-1-2-4-14(12)16/h1-6,9-11H,7-8,21H2,(H,23,24)/t19-/m0/s1

> <OPENEYE_INCHIKEY>
RPJBJMKATYTDKW-IBGZPJMESA-N

> <FORMULA>
C19H16ClN3O2

$$$$
