QN9
  -OEChem-05102419333D

 68 72  0     1  0  0  0  0  0999 V2000
    1.7890   -1.9450   -0.7930 N   0  0  0  0  0  0  0  0  0  0  0  0
   -1.4150    4.2950   -2.0140 N   0  0  0  0  0  0  0  0  0  0  0  0
    2.9500   -1.7730   -1.6790 C   0  0  0  0  0  0  0  0  0  0  0  0
    2.0110   -2.5350    0.5360 C   0  0  0  0  0  0  0  0  0  0  0  0
    3.1480   -1.7720    1.2240 C   0  0  0  0  0  0  0  0  0  0  0  0
    0.5570   -1.5680   -1.1860 C   0  0  0  0  0  0  0  0  0  0  0  0
   -0.6190   -1.7540   -0.2610 C   0  0  0  0  0  0  0  0  0  0  0  0
   -2.1320   -2.0120   -2.2320 C   0  0  0  0  0  0  0  0  0  0  0  0
   -5.3490   -1.9990    0.4160 C   0  0  0  0  0  0  0  0  0  0  0  0
   -3.9560   -1.2530    2.2130 C   0  0  0  0  0  0  0  0  0  0  0  0
   -3.0610   -1.4090   -0.0080 C   0  0  0  0  0  0  0  0  0  0  0  0
   -1.6790    3.0360   -1.6980 C   0  0  0  0  0  0  0  0  0  0  0  0
   -0.5980    5.0480   -1.3160 C   0  0  0  0  0  0  0  0  0  0  0  0
    0.0420    4.5310   -0.1780 C   0  0  0  0  0  0  0  0  0  0  0  0
    1.5150    4.7500    1.6900 C   0  0  0  0  0  0  0  0  0  0  0  0
    0.4140    2.6500    1.3270 C   0  0  0  0  0  0  0  0  0  0  0  0
   -1.8770    0.6250   -2.3950 O   0  0  0  0  0  0  0  0  0  0  0  0
   -1.7190    0.2310   -1.2580 C   0  0  0  0  0  0  0  0  0  0  0  0
   -1.3940    1.1020   -0.2820 N   0  0  0  0  0  0  0  0  0  0  0  0
   -1.1040    2.4310   -0.6000 C   0  0  0  0  0  0  0  0  0  0  0  0
   -0.2140    3.1860    0.1950 C   0  0  0  0  0  0  0  0  0  0  0  0
    1.2630    3.4290    2.0550 C   0  0  0  0  0  0  0  0  0  0  0  0
    0.9230    5.3030    0.5960 C   0  0  0  0  0  0  0  0  0  0  0  0
   -1.8880   -1.2320   -0.9380 C   0  0  1  0  0  0  0  0  0  0  0  0
   -2.8990   -1.1100    1.3340 C   0  0  0  0  0  0  0  0  0  0  0  0
   -3.7450   -0.8760    3.8940 Cl  0  0  0  0  0  0  0  0  0  0  0  0
   -5.1830   -1.6980    1.7520 C   0  0  0  0  0  0  0  0  0  0  0  0
   -4.2860   -1.8570   -0.4710 C   0  0  0  0  0  0  0  0  0  0  0  0
   -4.4870   -2.1690   -1.7780 O   0  0  0  0  0  0  0  0  0  0  0  0
   -3.5440   -1.6810   -2.7340 C   0  0  0  0  0  0  0  0  0  0  0  0
    0.3930   -1.0790   -2.2830 O   0  0  0  0  0  0  0  0  0  0  0  0
    4.0500   -1.0400   -0.9040 C   0  0  0  0  0  0  0  0  0  0  0  0
    4.3260   -1.7590    0.3470 N   0  0  0  0  0  0  0  0  0  0  0  0
    5.4900   -1.1880    1.0370 C   0  0  0  0  0  0  0  0  0  0  0  0
    6.7460   -1.4170    0.1930 C   0  0  0  0  0  0  0  0  0  0  0  0
    7.9580   -0.8220    0.9110 C   0  0  0  0  0  0  0  0  0  0  0  0
    9.1310   -1.0360    0.1230 O   0  0  0  0  0  0  0  0  0  0  0  0
    3.3150   -2.7490   -1.9980 H   0  0  0  0  0  0  0  0  0  0  0  0
    2.6610   -1.1840   -2.5500 H   0  0  0  0  0  0  0  0  0  0  0  0
    1.1010   -2.4500    1.1310 H   0  0  0  0  0  0  0  0  0  0  0  0
    2.2860   -3.5840    0.4300 H   0  0  0  0  0  0  0  0  0  0  0  0
    2.8310   -0.7480    1.4230 H   0  0  0  0  0  0  0  0  0  0  0  0
    3.3990   -2.2640    2.1640 H   0  0  0  0  0  0  0  0  0  0  0  0
   -0.7380   -2.8130   -0.0330 H   0  0  0  0  0  0  0  0  0  0  0  0
   -0.4460   -1.2010    0.6620 H   0  0  0  0  0  0  0  0  0  0  0  0
   -1.3980   -1.7190   -2.9820 H   0  0  0  0  0  0  0  0  0  0  0  0
   -2.0530   -3.0810   -2.0380 H   0  0  0  0  0  0  0  0  0  0  0  0
   -6.3060   -2.3460    0.0570 H   0  0  0  0  0  0  0  0  0  0  0  0
   -2.3610    2.4700   -2.3140 H   0  0  0  0  0  0  0  0  0  0  0  0
   -0.4170    6.0690   -1.6170 H   0  0  0  0  0  0  0  0  0  0  0  0
    2.1930    5.3450    2.2850 H   0  0  0  0  0  0  0  0  0  0  0  0
    0.2270    1.6280    1.6200 H   0  0  0  0  0  0  0  0  0  0  0  0
   -1.3610    0.8060    0.6410 H   0  0  0  0  0  0  0  0  0  0  0  0
    1.7460    3.0160    2.9280 H   0  0  0  0  0  0  0  0  0  0  0  0
    1.1300    6.3280    0.3250 H   0  0  0  0  0  0  0  0  0  0  0  0
   -1.9430   -0.7630    1.6950 H   0  0  0  0  0  0  0  0  0  0  0  0
   -6.0100   -1.8100    2.4380 H   0  0  0  0  0  0  0  0  0  0  0  0
   -3.6530   -0.6020   -2.8390 H   0  0  0  0  0  0  0  0  0  0  0  0
   -3.7140   -2.1640   -3.6960 H   0  0  0  0  0  0  0  0  0  0  0  0
    4.9570   -1.0010   -1.5080 H   0  0  0  0  0  0  0  0  0  0  0  0
    3.7210   -0.0260   -0.6770 H   0  0  0  0  0  0  0  0  0  0  0  0
    5.3390   -0.1180    1.1810 H   0  0  0  0  0  0  0  0  0  0  0  0
    5.6110   -1.6720    2.0060 H   0  0  0  0  0  0  0  0  0  0  0  0
    6.8970   -2.4870    0.0490 H   0  0  0  0  0  0  0  0  0  0  0  0
    6.6250   -0.9330   -0.7770 H   0  0  0  0  0  0  0  0  0  0  0  0
    7.8070    0.2480    1.0550 H   0  0  0  0  0  0  0  0  0  0  0  0
    8.0790   -1.3060    1.8810 H   0  0  0  0  0  0  0  0  0  0  0  0
    9.9400   -0.6830    0.5190 H   0  0  0  0  0  0  0  0  0  0  0  0
 15 23  2  0  0  0  0
 14 23  1  0  0  0  0
 15 22  1  0  0  0  0
 13 14  2  0  0  0  0
  2 13  1  0  0  0  0
 14 21  1  0  0  0  0
 36 37  1  0  0  0  0
 35 36  1  0  0  0  0
  2 12  2  0  0  0  0
  6 31  2  0  0  0  0
 16 22  2  0  0  0  0
 16 21  1  0  0  0  0
 20 21  2  0  0  0  0
 12 20  1  0  0  0  0
 34 35  1  0  0  0  0
 33 34  1  0  0  0  0
 19 20  1  0  0  0  0
  1  4  1  0  0  0  0
  4  5  1  0  0  0  0
  1  6  1  0  0  0  0
  6  7  1  0  0  0  0
  1  3  1  0  0  0  0
 18 19  1  0  0  0  0
  3 32  1  0  0  0  0
  5 33  1  0  0  0  0
 32 33  1  0  0  0  0
  7 24  1  0  0  0  0
 18 24  1  0  0  0  0
 17 18  2  0  0  0  0
  8 24  1  0  0  0  0
 11 24  1  0  0  0  0
  8 30  1  0  0  0  0
 29 30  1  0  0  0  0
 11 25  2  0  0  0  0
 11 28  1  0  0  0  0
 10 25  1  0  0  0  0
 28 29  1  0  0  0  0
  9 28  2  0  0  0  0
 10 26  1  0  0  0  0
 10 27  2  0  0  0  0
  9 27  1  0  0  0  0
  3 38  1  0  0  0  0
  3 39  1  0  0  0  0
  4 40  1  0  0  0  0
  4 41  1  0  0  0  0
  5 42  1  0  0  0  0
  5 43  1  0  0  0  0
  7 44  1  0  0  0  0
  7 45  1  0  0  0  0
  8 46  1  0  0  0  0
  8 47  1  0  0  0  0
  9 48  1  0  0  0  0
 12 49  1  0  0  0  0
 13 50  1  0  0  0  0
 15 51  1  0  0  0  0
 16 52  1  0  0  0  0
 19 53  1  0  0  0  0
 22 54  1  0  0  0  0
 23 55  1  0  0  0  0
 25 56  1  0  0  0  0
 27 57  1  0  0  0  0
 30 58  1  0  0  0  0
 30 59  1  0  0  0  0
 32 60  1  0  0  0  0
 32 61  1  0  0  0  0
 34 62  1  0  0  0  0
 34 63  1  0  0  0  0
 35 64  1  0  0  0  0
 35 65  1  0  0  0  0
 36 66  1  0  0  0  0
 36 67  1  0  0  0  0
 37 68  1  0  0  0  0
M  END
> <OPENEYE_ISO_SMILES>
c1ccc2c(c1)cncc2NC(=O)[C@@]3(CCOc4c3cc(cc4)Cl)CC(=O)N5CCN(CC5)CCCO

> <OPENEYE_INCHI>
InChI=1S/C28H31ClN4O4/c29-21-6-7-25-23(16-21)28(8-15-37-25,17-26(35)33-12-10-32(11-13-33)9-3-14-34)27(36)31-24-19-30-18-20-4-1-2-5-22(20)24/h1-2,4-7,16,18-19,34H,3,8-15,17H2,(H,31,36)/t28-/m0/s1

> <OPENEYE_INCHIKEY>
WROWCVDJFRRWBJ-NDEPHWFRSA-N

> <FORMULA>
C28H31ClN4O4

$$$$
