QNU
  -OEChem-05102419333D

 40 43  0     1  0  0  0  0  0999 V2000
    1.2160    0.4190   -0.8110 N   0  0  0  0  0  0  0  0  0  0  0  0
   -3.0420    3.0190    0.5600 C   0  0  0  0  0  0  0  0  0  0  0  0
   -0.7930    2.5490   -0.1690 C   0  0  0  0  0  0  0  0  0  0  0  0
   -1.1330    1.1910   -0.7840 C   0  0  1  0  0  0  0  0  0  0  0  0
   -0.0570    0.1970   -0.4290 C   0  0  0  0  0  0  0  0  0  0  0  0
    2.2280   -0.4560   -0.4090 C   0  0  0  0  0  0  0  0  0  0  0  0
    4.1550   -2.2700    0.3770 C   0  0  0  0  0  0  0  0  0  0  0  0
    6.1000    0.8600    0.4600 C   0  0  0  0  0  0  0  0  0  0  0  0
    3.8610    1.3780   -0.2260 C   0  0  0  0  0  0  0  0  0  0  0  0
   -2.4580    0.7040   -0.2540 C   0  0  0  0  0  0  0  0  0  0  0  0
   -0.3370   -0.8020    0.1990 O   0  0  0  0  0  0  0  0  0  0  0  0
   -1.9540    3.4380   -0.3300 N   0  0  0  0  0  0  0  0  0  0  0  0
   -3.3460    1.5560    0.3680 C   0  0  0  0  0  0  0  0  0  0  0  0
   -4.5560    1.0660    0.8370 C   0  0  0  0  0  0  0  0  0  0  0  0
   -4.8750   -0.2690    0.6870 C   0  0  0  0  0  0  0  0  0  0  0  0
   -2.7770   -0.6370   -0.4040 C   0  0  0  0  0  0  0  0  0  0  0  0
   -3.9830   -1.1240    0.0650 C   0  0  0  0  0  0  0  0  0  0  0  0
   -4.3760   -2.8040   -0.1260 Cl  0  0  0  0  0  0  0  0  0  0  0  0
    3.5260    0.0210   -0.1230 C   0  0  0  0  0  0  0  0  0  0  0  0
    5.1300    1.7790    0.0640 C   0  0  0  0  0  0  0  0  0  0  0  0
    5.8100   -0.4650    0.5700 C   0  0  0  0  0  0  0  0  0  0  0  0
    4.5120   -0.9160    0.2800 C   0  0  0  0  0  0  0  0  0  0  0  0
    2.9290   -2.6510    0.1030 N   0  0  0  0  0  0  0  0  0  0  0  0
    1.9820   -1.8070   -0.2760 C   0  0  0  0  0  0  0  0  0  0  0  0
    1.4300    1.1830   -1.3680 H   0  0  0  0  0  0  0  0  0  0  0  0
   -2.7470    3.1920    1.5950 H   0  0  0  0  0  0  0  0  0  0  0  0
   -3.9340    3.6030    0.3370 H   0  0  0  0  0  0  0  0  0  0  0  0
   -0.5700    2.4250    0.8910 H   0  0  0  0  0  0  0  0  0  0  0  0
    0.0690    2.9760   -0.6810 H   0  0  0  0  0  0  0  0  0  0  0  0
   -1.1910    1.2880   -1.8680 H   0  0  0  0  0  0  0  0  0  0  0  0
    4.8900   -3.0000    0.6830 H   0  0  0  0  0  0  0  0  0  0  0  0
    7.0990    1.2050    0.6830 H   0  0  0  0  0  0  0  0  0  0  0  0
    3.1180    2.1000   -0.5330 H   0  0  0  0  0  0  0  0  0  0  0  0
   -1.7000    4.3990   -0.1610 H   0  0  0  0  0  0  0  0  0  0  0  0
   -5.2530    1.7330    1.3220 H   0  0  0  0  0  0  0  0  0  0  0  0
   -5.8180   -0.6440    1.0540 H   0  0  0  0  0  0  0  0  0  0  0  0
   -2.0800   -1.3040   -0.8890 H   0  0  0  0  0  0  0  0  0  0  0  0
    5.3890    2.8250   -0.0150 H   0  0  0  0  0  0  0  0  0  0  0  0
    6.5720   -1.1660    0.8790 H   0  0  0  0  0  0  0  0  0  0  0  0
    0.9920   -2.1850   -0.4870 H   0  0  0  0  0  0  0  0  0  0  0  0
  8 21  2  0  0  0  0
 21 22  1  0  0  0  0
  8 20  1  0  0  0  0
  7 22  2  0  0  0  0
  7 23  1  0  0  0  0
 19 22  1  0  0  0  0
  9 20  2  0  0  0  0
 23 24  2  0  0  0  0
  9 19  1  0  0  0  0
  6 19  2  0  0  0  0
  6 24  1  0  0  0  0
  1  6  1  0  0  0  0
  1  5  1  0  0  0  0
  4  5  1  0  0  0  0
  5 11  2  0  0  0  0
  3  4  1  0  0  0  0
  3 12  1  0  0  0  0
  4 10  1  0  0  0  0
  2 12  1  0  0  0  0
 10 16  2  0  0  0  0
 10 13  1  0  0  0  0
 16 17  1  0  0  0  0
  2 13  1  0  0  0  0
 13 14  2  0  0  0  0
 17 18  1  0  0  0  0
 15 17  2  0  0  0  0
 14 15  1  0  0  0  0
  1 25  1  0  0  0  0
  2 26  1  0  0  0  0
  2 27  1  0  0  0  0
  3 28  1  0  0  0  0
  3 29  1  0  0  0  0
  4 30  1  0  0  0  0
  7 31  1  0  0  0  0
  8 32  1  0  0  0  0
  9 33  1  0  0  0  0
 12 34  1  0  0  0  0
 14 35  1  0  0  0  0
 15 36  1  0  0  0  0
 16 37  1  0  0  0  0
 20 38  1  0  0  0  0
 21 39  1  0  0  0  0
 24 40  1  0  0  0  0
M  END
> <OPENEYE_ISO_SMILES>
c1ccc2c(c1)cncc2NC(=O)[C@@H]3CNCc4c3cc(cc4)Cl

> <OPENEYE_INCHI>
InChI=1S/C19H16ClN3O/c20-14-6-5-13-9-21-10-17(16(13)7-14)19(24)23-18-11-22-8-12-3-1-2-4-15(12)18/h1-8,11,17,21H,9-10H2,(H,23,24)/t17-/m1/s1

> <OPENEYE_INCHIKEY>
SYSIIGBRVBHDHN-QGZVFWFLSA-N

> <FORMULA>
C19H16ClN3O

$$$$
