QO0
  -OEChem-05102419333D

 43 46  0     1  0  0  0  0  0999 V2000
    3.5460   -0.4690   -2.5630 N   0  0  0  0  0  0  0  0  0  0  0  0
   -2.8160   -1.2610   -0.4000 C   0  0  0  0  0  0  0  0  0  0  0  0
   -3.8020   -0.3850   -0.8410 C   0  0  0  0  0  0  0  0  0  0  0  0
   -3.7590    0.9480   -0.4830 C   0  0  0  0  0  0  0  0  0  0  0  0
   -2.7310    1.4150    0.3180 C   0  0  0  0  0  0  0  0  0  0  0  0
   -1.7490    0.5470    0.7560 C   0  0  0  0  0  0  0  0  0  0  0  0
    0.5470   -1.4960    0.0680 C   0  0  0  0  0  0  0  0  0  0  0  0
    4.5890    0.2360   -2.1930 C   0  0  0  0  0  0  0  0  0  0  0  0
    5.7490    1.5370   -0.4630 C   0  0  0  0  0  0  0  0  0  0  0  0
    4.6940    1.8110    1.6740 C   0  0  0  0  0  0  0  0  0  0  0  0
    0.7930   -2.2410   -0.8580 O   0  0  0  0  0  0  0  0  0  0  0  0
   -0.6960   -1.7050    0.8940 C   0  0  1  0  0  0  0  0  0  0  0  0
   -1.7870   -0.7900    0.3980 C   0  0  0  0  0  0  0  0  0  0  0  0
   -2.6750    3.0900    0.7710 Cl  0  0  0  0  0  0  0  0  0  0  0  0
   -4.9920    2.0370   -1.0380 Cl  0  0  0  0  0  0  0  0  0  0  0  0
   -2.8980   -2.5670   -0.7660 O   0  0  0  0  0  0  0  0  0  0  0  0
   -1.7250   -3.3710   -0.6350 C   0  0  0  0  0  0  0  0  0  0  0  0
   -1.1500   -3.1620    0.7720 C   0  0  0  0  0  0  0  0  0  0  0  0
   -0.4120   -1.4090    2.2630 O   0  0  0  0  0  0  0  0  0  0  0  0
    0.5440   -2.2860    2.8610 C   0  0  0  0  0  0  0  0  0  0  0  0
    1.3860   -0.4810    0.3570 N   0  0  0  0  0  0  0  0  0  0  0  0
    2.4780   -0.2210   -0.4730 C   0  0  0  0  0  0  0  0  0  0  0  0
    3.5700    0.5460   -0.0100 C   0  0  0  0  0  0  0  0  0  0  0  0
    3.6130    1.0780    1.2850 C   0  0  0  0  0  0  0  0  0  0  0  0
    5.7580    2.0390    0.8030 C   0  0  0  0  0  0  0  0  0  0  0  0
    4.6520    0.7770   -0.8990 C   0  0  0  0  0  0  0  0  0  0  0  0
    2.5170   -0.7060   -1.7630 C   0  0  0  0  0  0  0  0  0  0  0  0
   -4.6040   -0.7490   -1.4670 H   0  0  0  0  0  0  0  0  0  0  0  0
   -0.9470    0.9130    1.3810 H   0  0  0  0  0  0  0  0  0  0  0  0
    5.4020    0.3990   -2.8850 H   0  0  0  0  0  0  0  0  0  0  0  0
    6.5800    1.7220   -1.1280 H   0  0  0  0  0  0  0  0  0  0  0  0
    4.7270    2.2210    2.6720 H   0  0  0  0  0  0  0  0  0  0  0  0
   -1.9830   -4.4210   -0.7730 H   0  0  0  0  0  0  0  0  0  0  0  0
   -0.9890   -3.0730   -1.3810 H   0  0  0  0  0  0  0  0  0  0  0  0
   -0.2980   -3.8260    0.9230 H   0  0  0  0  0  0  0  0  0  0  0  0
   -1.9170   -3.3720    1.5180 H   0  0  0  0  0  0  0  0  0  0  0  0
    0.1390   -3.2970    2.8950 H   0  0  0  0  0  0  0  0  0  0  0  0
    1.4600   -2.2820    2.2700 H   0  0  0  0  0  0  0  0  0  0  0  0
    0.7640   -1.9480    3.8740 H   0  0  0  0  0  0  0  0  0  0  0  0
    1.2300    0.0680    1.1410 H   0  0  0  0  0  0  0  0  0  0  0  0
    2.7960    0.9090    1.9700 H   0  0  0  0  0  0  0  0  0  0  0  0
    6.6020    2.6230    1.1370 H   0  0  0  0  0  0  0  0  0  0  0  0
    1.6880   -1.2940   -2.1300 H   0  0  0  0  0  0  0  0  0  0  0  0
  9 25  2  0  0  0  0
  9 26  1  0  0  0  0
 10 25  1  0  0  0  0
  8 26  2  0  0  0  0
  1  8  1  0  0  0  0
 23 26  1  0  0  0  0
  1 27  2  0  0  0  0
 10 24  2  0  0  0  0
 23 24  1  0  0  0  0
 22 23  2  0  0  0  0
 22 27  1  0  0  0  0
 21 22  1  0  0  0  0
  7 21  1  0  0  0  0
 19 20  1  0  0  0  0
 12 19  1  0  0  0  0
  7 12  1  0  0  0  0
  7 11  2  0  0  0  0
 12 18  1  0  0  0  0
 17 18  1  0  0  0  0
 12 13  1  0  0  0  0
 16 17  1  0  0  0  0
  6 13  2  0  0  0  0
  2 13  1  0  0  0  0
  5  6  1  0  0  0  0
  2 16  1  0  0  0  0
  2  3  2  0  0  0  0
  5 14  1  0  0  0  0
  4  5  2  0  0  0  0
  3  4  1  0  0  0  0
  4 15  1  0  0  0  0
  3 28  1  0  0  0  0
  6 29  1  0  0  0  0
  8 30  1  0  0  0  0
  9 31  1  0  0  0  0
 10 32  1  0  0  0  0
 17 33  1  0  0  0  0
 17 34  1  0  0  0  0
 18 35  1  0  0  0  0
 18 36  1  0  0  0  0
 20 37  1  0  0  0  0
 20 38  1  0  0  0  0
 20 39  1  0  0  0  0
 21 40  1  0  0  0  0
 24 41  1  0  0  0  0
 25 42  1  0  0  0  0
 27 43  1  0  0  0  0
M  END
> <OPENEYE_ISO_SMILES>
CO[C@]1(CCOc2c1cc(c(c2)Cl)Cl)C(=O)Nc3cncc4c3cccc4

> <OPENEYE_INCHI>
InChI=1S/C20H16Cl2N2O3/c1-26-20(6-7-27-18-9-16(22)15(21)8-14(18)20)19(25)24-17-11-23-10-12-4-2-3-5-13(12)17/h2-5,8-11H,6-7H2,1H3,(H,24,25)/t20-/m0/s1

> <OPENEYE_INCHIKEY>
GPTYSZBZQAEHFD-FQEVSTJZSA-N

> <FORMULA>
C20H16Cl2N2O3

$$$$
