QOO
  -OEChem-05102419333D

 57 60  0     0  0  0  0  0  0999 V2000
   -2.5600   -0.1470    0.3990 N   0  0  0  0  0  0  0  0  0  0  0  0
    5.5760   -1.7820    2.0700 N   0  0  0  0  0  0  0  0  0  0  0  0
   -4.7020   -0.4230    1.5530 C   0  0  0  0  0  0  0  0  0  0  0  0
   -3.6310    0.5750    1.0990 C   0  0  0  0  0  0  0  0  0  0  0  0
   -1.4880    0.7010    0.1130 C   0  0  0  0  0  0  0  0  0  0  0  0
   -0.3720    0.2120   -0.5530 C   0  0  0  0  0  0  0  0  0  0  0  0
    0.6840    1.0550   -0.8400 C   0  0  0  0  0  0  0  0  0  0  0  0
    2.8990    0.0190   -0.5580 C   0  0  0  0  0  0  0  0  0  0  0  0
    6.8670   -1.6730    1.8640 C   0  0  0  0  0  0  0  0  0  0  0  0
    8.7210   -1.0170    0.3920 C   0  0  0  0  0  0  0  0  0  0  0  0
    8.2100   -0.1040   -1.7670 C   0  0  0  0  0  0  0  0  0  0  0  0
    0.6320    2.3840   -0.4640 C   0  0  0  0  0  0  0  0  0  0  0  0
   -0.4790    2.8750    0.2000 C   0  0  0  0  0  0  0  0  0  0  0  0
   -1.5390    2.0370    0.4890 C   0  0  0  0  0  0  0  0  0  0  0  0
   -7.4080   -1.1890    1.2640 O   0  0  0  0  0  0  0  0  0  0  0  0
   -6.7460   -1.3570    0.0180 S   0  0  0  0  0  0  0  0  0  0  0  0
   -6.8270   -2.5840   -0.6950 O   0  0  0  0  0  0  0  0  0  0  0  0
   -7.0940    0.0420   -1.0820 C   0  0  0  0  0  0  0  0  0  0  0  0
   -8.5660    0.0110   -1.4960 C   0  0  0  0  0  0  0  0  0  0  0  0
   -5.1390   -1.2040    0.3860 N   0  0  0  0  0  0  0  0  0  0  0  0
   -3.0610   -0.7920   -0.8220 C   0  0  0  0  0  0  0  0  0  0  0  0
   -4.1090   -1.8450   -0.4460 C   0  0  0  0  0  0  0  0  0  0  0  0
   -0.5400    4.5450    0.6700 Cl  0  0  0  0  0  0  0  0  0  0  0  0
    1.8960    0.5240   -1.5620 C   0  0  0  0  0  0  0  0  0  0  0  0
    2.6540    0.0840    0.6280 O   0  0  0  0  0  0  0  0  0  0  0  0
    4.0680   -0.5040   -0.9770 N   0  0  0  0  0  0  0  0  0  0  0  0
    5.0360   -0.8870   -0.0460 C   0  0  0  0  0  0  0  0  0  0  0  0
    6.4110   -0.7430   -0.3330 C   0  0  0  0  0  0  0  0  0  0  0  0
    6.8690   -0.2180   -1.5480 C   0  0  0  0  0  0  0  0  0  0  0  0
    9.1310   -0.5020   -0.8000 C   0  0  0  0  0  0  0  0  0  0  0  0
    7.3470   -1.1490    0.6530 C   0  0  0  0  0  0  0  0  0  0  0  0
    4.6710   -1.4140    1.1750 C   0  0  0  0  0  0  0  0  0  0  0  0
   -4.2850   -1.0910    2.3060 H   0  0  0  0  0  0  0  0  0  0  0  0
   -5.5510    0.1180    1.9740 H   0  0  0  0  0  0  0  0  0  0  0  0
   -3.2180    1.0860    1.9680 H   0  0  0  0  0  0  0  0  0  0  0  0
   -4.0770    1.3060    0.4250 H   0  0  0  0  0  0  0  0  0  0  0  0
   -0.3290   -0.8260   -0.8460 H   0  0  0  0  0  0  0  0  0  0  0  0
    7.5630   -1.9880    2.6270 H   0  0  0  0  0  0  0  0  0  0  0  0
    9.4460   -1.3210    1.1320 H   0  0  0  0  0  0  0  0  0  0  0  0
    8.5630    0.3010   -2.7040 H   0  0  0  0  0  0  0  0  0  0  0  0
    1.4590    3.0410   -0.6890 H   0  0  0  0  0  0  0  0  0  0  0  0
   -2.4080    2.4220    1.0030 H   0  0  0  0  0  0  0  0  0  0  0  0
   -6.8830    0.9760   -0.5600 H   0  0  0  0  0  0  0  0  0  0  0  0
   -6.4650   -0.0280   -1.9690 H   0  0  0  0  0  0  0  0  0  0  0  0
   -9.1950    0.0810   -0.6090 H   0  0  0  0  0  0  0  0  0  0  0  0
   -8.7760    0.8520   -2.1570 H   0  0  0  0  0  0  0  0  0  0  0  0
   -8.7770   -0.9220   -2.0180 H   0  0  0  0  0  0  0  0  0  0  0  0
   -3.5150   -0.0420   -1.4690 H   0  0  0  0  0  0  0  0  0  0  0  0
   -2.2340   -1.2730   -1.3450 H   0  0  0  0  0  0  0  0  0  0  0  0
   -3.6340   -2.6510    0.1150 H   0  0  0  0  0  0  0  0  0  0  0  0
   -4.5670   -2.2460   -1.3500 H   0  0  0  0  0  0  0  0  0  0  0  0
    1.5980   -0.2920   -2.2200 H   0  0  0  0  0  0  0  0  0  0  0  0
    2.3440    1.3220   -2.1540 H   0  0  0  0  0  0  0  0  0  0  0  0
    4.2370   -0.6150   -1.9260 H   0  0  0  0  0  0  0  0  0  0  0  0
    6.1660    0.0950   -2.3050 H   0  0  0  0  0  0  0  0  0  0  0  0
   10.1870   -0.4010   -1.0000 H   0  0  0  0  0  0  0  0  0  0  0  0
    3.6230   -1.5300    1.4070 H   0  0  0  0  0  0  0  0  0  0  0  0
 10 30  2  0  0  0  0
 10 31  1  0  0  0  0
 11 30  1  0  0  0  0
  9 31  2  0  0  0  0
  2  9  1  0  0  0  0
 28 31  1  0  0  0  0
 11 29  2  0  0  0  0
  2 32  2  0  0  0  0
 28 29  1  0  0  0  0
 27 28  2  0  0  0  0
 27 32  1  0  0  0  0
 26 27  1  0  0  0  0
  8 26  1  0  0  0  0
  8 24  1  0  0  0  0
  8 25  2  0  0  0  0
  7 24  1  0  0  0  0
  7 12  2  0  0  0  0
  6  7  1  0  0  0  0
 12 13  1  0  0  0  0
  5  6  2  0  0  0  0
 13 23  1  0  0  0  0
 13 14  2  0  0  0  0
  5 14  1  0  0  0  0
  1  5  1  0  0  0  0
  1 21  1  0  0  0  0
 21 22  1  0  0  0  0
  1  4  1  0  0  0  0
  3  4  1  0  0  0  0
 20 22  1  0  0  0  0
  3 20  1  0  0  0  0
 16 20  1  0  0  0  0
 16 17  2  0  0  0  0
 15 16  2  0  0  0  0
 16 18  1  0  0  0  0
 18 19  1  0  0  0  0
  3 33  1  0  0  0  0
  3 34  1  0  0  0  0
  4 35  1  0  0  0  0
  4 36  1  0  0  0  0
  6 37  1  0  0  0  0
  9 38  1  0  0  0  0
 10 39  1  0  0  0  0
 11 40  1  0  0  0  0
 12 41  1  0  0  0  0
 14 42  1  0  0  0  0
 18 43  1  0  0  0  0
 18 44  1  0  0  0  0
 19 45  1  0  0  0  0
 19 46  1  0  0  0  0
 19 47  1  0  0  0  0
 21 48  1  0  0  0  0
 21 49  1  0  0  0  0
 22 50  1  0  0  0  0
 22 51  1  0  0  0  0
 24 52  1  0  0  0  0
 24 53  1  0  0  0  0
 26 54  1  0  0  0  0
 29 55  1  0  0  0  0
 30 56  1  0  0  0  0
 32 57  1  0  0  0  0
M  END
> <OPENEYE_ISO_SMILES>
CCS(=O)(=O)N1CCN(CC1)c2cc(cc(c2)Cl)CC(=O)Nc3cncc4c3cccc4

> <OPENEYE_INCHI>
InChI=1S/C23H25ClN4O3S/c1-2-32(30,31)28-9-7-27(8-10-28)20-12-17(11-19(24)14-20)13-23(29)26-22-16-25-15-18-5-3-4-6-21(18)22/h3-6,11-12,14-16H,2,7-10,13H2,1H3,(H,26,29)

> <OPENEYE_INCHIKEY>
FPNVOOOMGSKXIQ-UHFFFAOYSA-N

> <FORMULA>
C23H25ClN4O3S

$$$$
