QP0
  -OEChem-05102419333D

 42 45  0     1  0  0  0  0  0999 V2000
    3.0480    0.3330   -2.4160 N   0  0  0  0  0  0  0  0  0  0  0  0
   -4.5940    0.7110   -0.1160 C   0  0  0  0  0  0  0  0  0  0  0  0
   -4.0820    1.9900   -0.0420 C   0  0  0  0  0  0  0  0  0  0  0  0
   -2.7310    2.1820    0.1850 C   0  0  0  0  0  0  0  0  0  0  0  0
   -1.8960    1.0920    0.3400 C   0  0  0  0  0  0  0  0  0  0  0  0
   -2.4050   -0.1940    0.2700 C   0  0  0  0  0  0  0  0  0  0  0  0
   -0.1840   -1.0920   -0.2940 C   0  0  0  0  0  0  0  0  0  0  0  0
    4.2300    0.4870   -1.8660 C   0  0  0  0  0  0  0  0  0  0  0  0
    5.6440    0.4490    0.1410 C   0  0  0  0  0  0  0  0  0  0  0  0
    4.6390   -0.1070    2.2480 C   0  0  0  0  0  0  0  0  0  0  0  0
   -0.1100   -1.3430   -1.4780 O   0  0  0  0  0  0  0  0  0  0  0  0
   -1.4640   -1.3580    0.4550 C   0  0  2  0  0  0  0  0  0  0  0  0
   -2.0850    3.7910    0.2740 Cl  0  0  0  0  0  0  0  0  0  0  0  0
   -3.7560   -0.3880    0.0440 C   0  0  0  0  0  0  0  0  0  0  0  0
   -4.2970   -1.6320   -0.0400 O   0  0  0  0  0  0  0  0  0  0  0  0
   -3.5370   -2.7260    0.4770 C   0  0  0  0  0  0  0  0  0  0  0  0
   -2.1120   -2.6360   -0.0830 C   0  0  2  0  0  0  0  0  0  0  0  0
   -1.3040   -3.8540    0.3690 C   0  0  0  0  0  0  0  0  0  0  0  0
    0.8800   -0.5740    0.3530 N   0  0  0  0  0  0  0  0  0  0  0  0
    2.0260   -0.2180   -0.3610 C   0  0  0  0  0  0  0  0  0  0  0  0
    3.2680   -0.0690    0.2930 C   0  0  0  0  0  0  0  0  0  0  0  0
    3.4140   -0.2660    1.6720 C   0  0  0  0  0  0  0  0  0  0  0  0
    5.7490    0.2490    1.4840 C   0  0  0  0  0  0  0  0  0  0  0  0
    4.3970    0.2940   -0.4860 C   0  0  0  0  0  0  0  0  0  0  0  0
    1.9710   -0.0050   -1.7230 C   0  0  0  0  0  0  0  0  0  0  0  0
   -5.6490    0.5620   -0.2930 H   0  0  0  0  0  0  0  0  0  0  0  0
   -4.7360    2.8420   -0.1630 H   0  0  0  0  0  0  0  0  0  0  0  0
   -0.8410    1.2430    0.5170 H   0  0  0  0  0  0  0  0  0  0  0  0
    5.0760    0.7630   -2.4780 H   0  0  0  0  0  0  0  0  0  0  0  0
    6.5130    0.7250   -0.4370 H   0  0  0  0  0  0  0  0  0  0  0  0
    4.7510   -0.2590    3.3110 H   0  0  0  0  0  0  0  0  0  0  0  0
   -1.2450   -1.4820    1.5160 H   0  0  0  0  0  0  0  0  0  0  0  0
   -3.5040   -2.6690    1.5650 H   0  0  0  0  0  0  0  0  0  0  0  0
   -3.9940   -3.6670    0.1720 H   0  0  0  0  0  0  0  0  0  0  0  0
   -2.1460   -2.6000   -1.1720 H   0  0  0  0  0  0  0  0  0  0  0  0
   -1.2810   -3.8910    1.4580 H   0  0  0  0  0  0  0  0  0  0  0  0
   -1.7690   -4.7610   -0.0160 H   0  0  0  0  0  0  0  0  0  0  0  0
   -0.2860   -3.7760   -0.0140 H   0  0  0  0  0  0  0  0  0  0  0  0
    0.8490   -0.4490    1.3140 H   0  0  0  0  0  0  0  0  0  0  0  0
    2.5610   -0.5430    2.2750 H   0  0  0  0  0  0  0  0  0  0  0  0
    6.7080    0.3690    1.9660 H   0  0  0  0  0  0  0  0  0  0  0  0
    1.0270   -0.1150   -2.2360 H   0  0  0  0  0  0  0  0  0  0  0  0
  9 23  2  0  0  0  0
  9 24  1  0  0  0  0
 10 23  1  0  0  0  0
  8 24  2  0  0  0  0
  1  8  1  0  0  0  0
 21 24  1  0  0  0  0
 10 22  2  0  0  0  0
  1 25  2  0  0  0  0
 21 22  1  0  0  0  0
 20 21  2  0  0  0  0
 20 25  1  0  0  0  0
 19 20  1  0  0  0  0
  7 19  1  0  0  0  0
  7 12  1  0  0  0  0
  7 11  2  0  0  0  0
 17 18  1  0  0  0  0
 12 17  1  0  0  0  0
  6 12  1  0  0  0  0
 16 17  1  0  0  0  0
  5  6  2  0  0  0  0
  6 14  1  0  0  0  0
  4  5  1  0  0  0  0
 15 16  1  0  0  0  0
 14 15  1  0  0  0  0
  2 14  2  0  0  0  0
  4 13  1  0  0  0  0
  3  4  2  0  0  0  0
  2  3  1  0  0  0  0
  2 26  1  0  0  0  0
  3 27  1  0  0  0  0
  5 28  1  0  0  0  0
  8 29  1  0  0  0  0
  9 30  1  0  0  0  0
 10 31  1  0  0  0  0
 12 32  1  0  0  0  0
 16 33  1  0  0  0  0
 16 34  1  0  0  0  0
 17 35  1  0  0  0  0
 18 36  1  0  0  0  0
 18 37  1  0  0  0  0
 18 38  1  0  0  0  0
 19 39  1  0  0  0  0
 22 40  1  0  0  0  0
 23 41  1  0  0  0  0
 25 42  1  0  0  0  0
M  END
> <OPENEYE_ISO_SMILES>
C[C@H]1COc2ccc(cc2[C@@H]1C(=O)Nc3cncc4c3cccc4)Cl

> <OPENEYE_INCHI>
InChI=1S/C20H17ClN2O2/c1-12-11-25-18-7-6-14(21)8-16(18)19(12)20(24)23-17-10-22-9-13-4-2-3-5-15(13)17/h2-10,12,19H,11H2,1H3,(H,23,24)/t12-,19+/m0/s1

> <OPENEYE_INCHIKEY>
SGXOKACJPFKOBB-HXPMCKFVSA-N

> <FORMULA>
C20H17ClN2O2

$$$$
