QP6
  -OEChem-05102419333D

 43 46  0     1  0  0  0  0  0999 V2000
    3.0910   -1.1710   -2.3940 N   0  0  0  0  0  0  0  0  0  0  0  0
   -3.2790   -0.2300   -0.3290 C   0  0  0  0  0  0  0  0  0  0  0  0
   -4.0550    0.7540   -0.9380 C   0  0  0  0  0  0  0  0  0  0  0  0
   -3.7200    2.0880   -0.8000 C   0  0  0  0  0  0  0  0  0  0  0  0
   -2.6090    2.4470   -0.0550 C   0  0  0  0  0  0  0  0  0  0  0  0
   -1.8370    1.4700    0.5480 C   0  0  0  0  0  0  0  0  0  0  0  0
   -0.0460   -1.0980    0.2740 C   0  0  0  0  0  0  0  0  0  0  0  0
    4.2620   -0.6510   -2.1100 C   0  0  0  0  0  0  0  0  0  0  0  0
    5.6800    0.6410   -0.5770 C   0  0  0  0  0  0  0  0  0  0  0  0
    4.7170    1.4780    1.4540 C   0  0  0  0  0  0  0  0  0  0  0  0
    0.0310   -2.0190   -0.5110 O   0  0  0  0  0  0  0  0  0  0  0  0
   -1.3020   -0.9020    1.0840 C   0  0  1  0  0  0  0  0  0  0  0  0
   -2.1720    0.1320    0.4150 C   0  0  0  0  0  0  0  0  0  0  0  0
   -2.2800    3.7500    0.0830 F   0  0  0  0  0  0  0  0  0  0  0  0
   -5.1380    0.4040   -1.6650 F   0  0  0  0  0  0  0  0  0  0  0  0
   -3.6440   -1.5310   -0.4850 O   0  0  0  0  0  0  0  0  0  0  0  0
   -2.6720   -2.5360   -0.1920 C   0  0  0  0  0  0  0  0  0  0  0  0
   -2.0580   -2.2280    1.1800 C   0  0  0  0  0  0  0  0  0  0  0  0
   -0.9560   -0.4560    2.3970 O   0  0  0  0  0  0  0  0  0  0  0  0
   -0.2070   -1.4080    3.1550 C   0  0  0  0  0  0  0  0  0  0  0  0
    0.9900   -0.2500    0.4220 N   0  0  0  0  0  0  0  0  0  0  0  0
    2.1100   -0.3640   -0.4050 C   0  0  0  0  0  0  0  0  0  0  0  0
    3.3420    0.2200   -0.0380 C   0  0  0  0  0  0  0  0  0  0  0  0
    3.5030    0.9360    1.1550 C   0  0  0  0  0  0  0  0  0  0  0  0
    5.8010    1.3310    0.5910 C   0  0  0  0  0  0  0  0  0  0  0  0
    4.4440    0.0690   -0.9190 C   0  0  0  0  0  0  0  0  0  0  0  0
    2.0390   -1.0520   -1.5980 C   0  0  0  0  0  0  0  0  0  0  0  0
   -4.3220    2.8490   -1.2730 H   0  0  0  0  0  0  0  0  0  0  0  0
   -0.9710    1.7520    1.1280 H   0  0  0  0  0  0  0  0  0  0  0  0
    5.0880   -0.7790   -2.7940 H   0  0  0  0  0  0  0  0  0  0  0  0
    6.5290    0.5360   -1.2370 H   0  0  0  0  0  0  0  0  0  0  0  0
    4.8410    2.0290    2.3750 H   0  0  0  0  0  0  0  0  0  0  0  0
   -3.1520   -3.5140   -0.1680 H   0  0  0  0  0  0  0  0  0  0  0  0
   -1.8930   -2.5260   -0.9540 H   0  0  0  0  0  0  0  0  0  0  0  0
   -1.3690   -3.0240    1.4610 H   0  0  0  0  0  0  0  0  0  0  0  0
   -2.8500   -2.1470    1.9240 H   0  0  0  0  0  0  0  0  0  0  0  0
   -0.8200   -2.2910    3.3370 H   0  0  0  0  0  0  0  0  0  0  0  0
    0.6860   -1.6940    2.6000 H   0  0  0  0  0  0  0  0  0  0  0  0
    0.0840   -0.9660    4.1080 H   0  0  0  0  0  0  0  0  0  0  0  0
    0.9590    0.4410    1.1020 H   0  0  0  0  0  0  0  0  0  0  0  0
    2.6710    1.0570    1.8330 H   0  0  0  0  0  0  0  0  0  0  0  0
    6.7520    1.7700    0.8530 H   0  0  0  0  0  0  0  0  0  0  0  0
    1.1030   -1.5040   -1.8910 H   0  0  0  0  0  0  0  0  0  0  0  0
  9 25  2  0  0  0  0
  9 26  1  0  0  0  0
 10 25  1  0  0  0  0
  8 26  2  0  0  0  0
  1  8  1  0  0  0  0
 23 26  1  0  0  0  0
  1 27  2  0  0  0  0
 10 24  2  0  0  0  0
 23 24  1  0  0  0  0
 22 23  2  0  0  0  0
 22 27  1  0  0  0  0
 21 22  1  0  0  0  0
  7 21  1  0  0  0  0
 19 20  1  0  0  0  0
 12 19  1  0  0  0  0
  7 12  1  0  0  0  0
  7 11  2  0  0  0  0
 12 18  1  0  0  0  0
 12 13  1  0  0  0  0
 17 18  1  0  0  0  0
  6 13  2  0  0  0  0
  2 13  1  0  0  0  0
  5  6  1  0  0  0  0
 16 17  1  0  0  0  0
  5 14  1  0  0  0  0
  4  5  2  0  0  0  0
  2 16  1  0  0  0  0
  2  3  2  0  0  0  0
  3  4  1  0  0  0  0
  3 15  1  0  0  0  0
  4 28  1  0  0  0  0
  6 29  1  0  0  0  0
  8 30  1  0  0  0  0
  9 31  1  0  0  0  0
 10 32  1  0  0  0  0
 17 33  1  0  0  0  0
 17 34  1  0  0  0  0
 18 35  1  0  0  0  0
 18 36  1  0  0  0  0
 20 37  1  0  0  0  0
 20 38  1  0  0  0  0
 20 39  1  0  0  0  0
 21 40  1  0  0  0  0
 24 41  1  0  0  0  0
 25 42  1  0  0  0  0
 27 43  1  0  0  0  0
M  END
> <OPENEYE_ISO_SMILES>
CO[C@]1(CCOc2c1cc(cc2F)F)C(=O)Nc3cncc4c3cccc4

> <OPENEYE_INCHI>
InChI=1S/C20H16F2N2O3/c1-26-20(6-7-27-18-15(20)8-13(21)9-16(18)22)19(25)24-17-11-23-10-12-4-2-3-5-14(12)17/h2-5,8-11H,6-7H2,1H3,(H,24,25)/t20-/m0/s1

> <OPENEYE_INCHIKEY>
RMXNRMBUTBCRQX-FQEVSTJZSA-N

> <FORMULA>
C20H16F2N2O3

$$$$
