QPQ
  -OEChem-05102419333D

 43 46  0     1  0  0  0  0  0999 V2000
    3.3610   -0.8340   -2.4510 N   0  0  0  0  0  0  0  0  0  0  0  0
   -3.1080   -0.9560   -0.4750 C   0  0  0  0  0  0  0  0  0  0  0  0
   -4.0060   -0.0430   -1.0180 C   0  0  0  0  0  0  0  0  0  0  0  0
   -3.8670    1.3070   -0.7600 C   0  0  0  0  0  0  0  0  0  0  0  0
   -2.8300    1.7540    0.0440 C   0  0  0  0  0  0  0  0  0  0  0  0
   -1.9360    0.8480    0.5820 C   0  0  0  0  0  0  0  0  0  0  0  0
    0.2080   -1.4150    0.1360 C   0  0  0  0  0  0  0  0  0  0  0  0
    4.4440   -0.1830   -2.0960 C   0  0  0  0  0  0  0  0  0  0  0  0
    5.6460    1.1630   -0.4310 C   0  0  0  0  0  0  0  0  0  0  0  0
    4.5480    1.6880    1.6360 C   0  0  0  0  0  0  0  0  0  0  0  0
    0.4240   -2.2490   -0.7180 O   0  0  0  0  0  0  0  0  0  0  0  0
   -1.0730   -1.4620    0.9280 C   0  0  1  0  0  0  0  0  0  0  0  0
   -2.0710   -0.5060    0.3240 C   0  0  0  0  0  0  0  0  0  0  0  0
   -2.6540    3.4490    0.3720 Cl  0  0  0  0  0  0  0  0  0  0  0  0
   -4.7410    2.1910   -1.2890 F   0  0  0  0  0  0  0  0  0  0  0  0
   -3.2830   -2.2760   -0.7450 O   0  0  0  0  0  0  0  0  0  0  0  0
   -2.1830   -3.1570   -0.5090 C   0  0  0  0  0  0  0  0  0  0  0  0
   -1.6380   -2.8840    0.8990 C   0  0  0  0  0  0  0  0  0  0  0  0
   -0.8110   -1.0820    2.2800 O   0  0  0  0  0  0  0  0  0  0  0  0
    0.0530   -1.9810    2.9790 C   0  0  0  0  0  0  0  0  0  0  0  0
    1.1140   -0.4460    0.3770 N   0  0  0  0  0  0  0  0  0  0  0  0
    2.2500   -0.3370   -0.4280 C   0  0  0  0  0  0  0  0  0  0  0  0
    3.3830    0.3800    0.0150 C   0  0  0  0  0  0  0  0  0  0  0  0
    3.4260    1.0100    1.2650 C   0  0  0  0  0  0  0  0  0  0  0  0
    5.6540    1.7640    0.7910 C   0  0  0  0  0  0  0  0  0  0  0  0
    4.5070    0.4560   -0.8470 C   0  0  0  0  0  0  0  0  0  0  0  0
    2.2920   -0.9270   -1.6740 C   0  0  0  0  0  0  0  0  0  0  0  0
   -4.8140   -0.3910   -1.6450 H   0  0  0  0  0  0  0  0  0  0  0  0
   -1.1280    1.1980    1.2080 H   0  0  0  0  0  0  0  0  0  0  0  0
    5.2890   -0.1380   -2.7680 H   0  0  0  0  0  0  0  0  0  0  0  0
    6.5100    1.2310   -1.0750 H   0  0  0  0  0  0  0  0  0  0  0  0
    4.5810    2.1740    2.6000 H   0  0  0  0  0  0  0  0  0  0  0  0
   -2.5200   -4.1910   -0.5780 H   0  0  0  0  0  0  0  0  0  0  0  0
   -1.4030   -2.9750   -1.2480 H   0  0  0  0  0  0  0  0  0  0  0  0
   -0.8490   -3.5980    1.1320 H   0  0  0  0  0  0  0  0  0  0  0  0
   -2.4430   -2.9750    1.6280 H   0  0  0  0  0  0  0  0  0  0  0  0
   -0.4330   -2.9520    3.0740 H   0  0  0  0  0  0  0  0  0  0  0  0
    0.9850   -2.0940    2.4250 H   0  0  0  0  0  0  0  0  0  0  0  0
    0.2660   -1.5830    3.9710 H   0  0  0  0  0  0  0  0  0  0  0  0
    0.9770    0.1750    1.1090 H   0  0  0  0  0  0  0  0  0  0  0  0
    2.5760    0.9590    1.9290 H   0  0  0  0  0  0  0  0  0  0  0  0
    6.5300    2.3080    1.1110 H   0  0  0  0  0  0  0  0  0  0  0  0
    1.4320   -1.4790   -2.0250 H   0  0  0  0  0  0  0  0  0  0  0  0
  9 25  2  0  0  0  0
  9 26  1  0  0  0  0
 10 25  1  0  0  0  0
  8 26  2  0  0  0  0
  1  8  1  0  0  0  0
 23 26  1  0  0  0  0
  1 27  2  0  0  0  0
 10 24  2  0  0  0  0
 23 24  1  0  0  0  0
 22 23  2  0  0  0  0
 22 27  1  0  0  0  0
 21 22  1  0  0  0  0
  7 21  1  0  0  0  0
 19 20  1  0  0  0  0
 12 19  1  0  0  0  0
  7 12  1  0  0  0  0
  7 11  2  0  0  0  0
 12 18  1  0  0  0  0
 12 13  1  0  0  0  0
 17 18  1  0  0  0  0
  6 13  2  0  0  0  0
  2 13  1  0  0  0  0
  5  6  1  0  0  0  0
 16 17  1  0  0  0  0
  2 16  1  0  0  0  0
  2  3  2  0  0  0  0
  5 14  1  0  0  0  0
  4  5  2  0  0  0  0
  3  4  1  0  0  0  0
  4 15  1  0  0  0  0
  3 28  1  0  0  0  0
  6 29  1  0  0  0  0
  8 30  1  0  0  0  0
  9 31  1  0  0  0  0
 10 32  1  0  0  0  0
 17 33  1  0  0  0  0
 17 34  1  0  0  0  0
 18 35  1  0  0  0  0
 18 36  1  0  0  0  0
 20 37  1  0  0  0  0
 20 38  1  0  0  0  0
 20 39  1  0  0  0  0
 21 40  1  0  0  0  0
 24 41  1  0  0  0  0
 25 42  1  0  0  0  0
 27 43  1  0  0  0  0
M  END
> <OPENEYE_ISO_SMILES>
CO[C@]1(CCOc2c1cc(c(c2)F)Cl)C(=O)Nc3cncc4c3cccc4

> <OPENEYE_INCHI>
InChI=1S/C20H16ClFN2O3/c1-26-20(6-7-27-18-9-16(22)15(21)8-14(18)20)19(25)24-17-11-23-10-12-4-2-3-5-13(12)17/h2-5,8-11H,6-7H2,1H3,(H,24,25)/t20-/m0/s1

> <OPENEYE_INCHIKEY>
FBLHAFJQTKYFLC-FQEVSTJZSA-N

> <FORMULA>
C20H16ClFN2O3

$$$$
