QRF
  -OEChem-05102419333D

 57 61  0     0  0  0  0  0  0999 V2000
    4.7740    2.7400   -1.1750 N   0  0  0  0  0  0  0  0  0  0  0  0
   -4.6680    1.2630    0.8600 N   0  0  0  0  0  0  0  0  0  0  0  0
    3.0140   -0.5440    0.6710 C   0  0  0  0  0  0  0  0  0  0  0  0
    4.8990    0.8230    0.1970 C   0  0  0  0  0  0  0  0  0  0  0  0
    4.1810    1.8250   -0.4210 C   0  0  0  0  0  0  0  0  0  0  0  0
    6.0690    2.7600   -1.3850 C   0  0  0  0  0  0  0  0  0  0  0  0
    6.8940    1.7840   -0.8030 C   0  0  0  0  0  0  0  0  0  0  0  0
    9.0360    0.7990   -0.4130 C   0  0  0  0  0  0  0  0  0  0  0  0
    6.2990    0.7860    0.0110 C   0  0  0  0  0  0  0  0  0  0  0  0
   -1.4200   -1.2820    0.8160 C   0  0  0  0  0  0  0  0  0  0  0  0
   -2.2530    0.9300    0.8520 C   0  0  0  0  0  0  0  0  0  0  0  0
   -3.7380   -0.9570    0.4740 C   0  0  0  0  0  0  0  0  0  0  0  0
   -5.5540    2.0820    0.2590 C   0  0  0  0  0  0  0  0  0  0  0  0
   -6.7470    1.5230   -0.3860 C   0  0  0  0  0  0  0  0  0  0  0  0
   -8.7020    1.3060   -1.4190 C   0  0  0  0  0  0  0  0  0  0  0  0
   -5.3640    3.2830    0.2500 O   0  0  0  0  0  0  0  0  0  0  0  0
   -7.0100    0.2120   -0.5680 O   0  0  0  0  0  0  0  0  0  0  0  0
   -8.1880    0.0770   -1.1910 C   0  0  0  0  0  0  0  0  0  0  0  0
   -7.7900    2.2390   -0.9020 C   0  0  0  0  0  0  0  0  0  0  0  0
   -3.4020    1.7860    1.3960 C   0  0  0  0  0  0  0  0  0  0  0  0
   -4.9440   -0.1740    1.0040 C   0  0  0  0  0  0  0  0  0  0  0  0
   -2.5170   -0.4840    1.1490 N   0  0  0  0  0  0  0  0  0  0  0  0
   -1.5790   -2.3560   -0.0510 C   0  0  0  0  0  0  0  0  0  0  0  0
   -0.4910   -3.1430   -0.3790 C   0  0  0  0  0  0  0  0  0  0  0  0
   -0.6870   -4.4850   -1.4630 Cl  0  0  0  0  0  0  0  0  0  0  0  0
   -0.1680   -1.0000    1.3450 C   0  0  0  0  0  0  0  0  0  0  0  0
    0.9170   -1.7870    1.0090 C   0  0  0  0  0  0  0  0  0  0  0  0
    0.7550   -2.8620    0.1550 C   0  0  0  0  0  0  0  0  0  0  0  0
    2.2750   -1.4840    1.5880 C   0  0  0  0  0  0  0  0  0  0  0  0
    2.4900   -0.1590   -0.3520 O   0  0  0  0  0  0  0  0  0  0  0  0
    4.2580   -0.1330    0.9880 N   0  0  0  0  0  0  0  0  0  0  0  0
    7.1040   -0.1970    0.6020 C   0  0  0  0  0  0  0  0  0  0  0  0
    8.4490   -0.1800    0.3860 C   0  0  0  0  0  0  0  0  0  0  0  0
    8.2840    1.7690   -1.0020 C   0  0  0  0  0  0  0  0  0  0  0  0
    3.1100    1.8650   -0.2880 H   0  0  0  0  0  0  0  0  0  0  0  0
    6.5020    3.5280   -2.0080 H   0  0  0  0  0  0  0  0  0  0  0  0
   10.1050    0.7890   -0.5670 H   0  0  0  0  0  0  0  0  0  0  0  0
   -2.1770    1.0670   -0.2260 H   0  0  0  0  0  0  0  0  0  0  0  0
   -1.3190    1.2330    1.3250 H   0  0  0  0  0  0  0  0  0  0  0  0
   -3.8740   -2.0200    0.6710 H   0  0  0  0  0  0  0  0  0  0  0  0
   -3.6460   -0.7940   -0.6000 H   0  0  0  0  0  0  0  0  0  0  0  0
   -9.6410    1.5280   -1.9040 H   0  0  0  0  0  0  0  0  0  0  0  0
   -8.6490   -0.8590   -1.4690 H   0  0  0  0  0  0  0  0  0  0  0  0
   -7.8890    3.3140   -0.9150 H   0  0  0  0  0  0  0  0  0  0  0  0
   -3.2690    2.8200    1.0800 H   0  0  0  0  0  0  0  0  0  0  0  0
   -3.4150    1.7310    2.4850 H   0  0  0  0  0  0  0  0  0  0  0  0
   -5.1030   -0.4130    2.0550 H   0  0  0  0  0  0  0  0  0  0  0  0
   -5.8320   -0.4360    0.4280 H   0  0  0  0  0  0  0  0  0  0  0  0
   -2.5500   -2.5760   -0.4680 H   0  0  0  0  0  0  0  0  0  0  0  0
   -0.0410   -0.1650    2.0190 H   0  0  0  0  0  0  0  0  0  0  0  0
    1.6040   -3.4760   -0.1050 H   0  0  0  0  0  0  0  0  0  0  0  0
    2.8400   -2.4100    1.6920 H   0  0  0  0  0  0  0  0  0  0  0  0
    2.1570   -1.0180    2.5670 H   0  0  0  0  0  0  0  0  0  0  0  0
    4.7070   -0.5000    1.7650 H   0  0  0  0  0  0  0  0  0  0  0  0
    6.6620   -0.9610    1.2230 H   0  0  0  0  0  0  0  0  0  0  0  0
    9.0700   -0.9380    0.8410 H   0  0  0  0  0  0  0  0  0  0  0  0
    8.7520    2.5220   -1.6190 H   0  0  0  0  0  0  0  0  0  0  0  0
  8 34  2  0  0  0  0
  7 34  1  0  0  0  0
  8 33  1  0  0  0  0
  6  7  2  0  0  0  0
  1  6  1  0  0  0  0
  7  9  1  0  0  0  0
  1  5  2  0  0  0  0
 32 33  2  0  0  0  0
  9 32  1  0  0  0  0
  4  9  2  0  0  0  0
  4  5  1  0  0  0  0
  4 31  1  0  0  0  0
  3 31  1  0  0  0  0
  3 29  1  0  0  0  0
  3 30  2  0  0  0  0
 27 29  1  0  0  0  0
 27 28  2  0  0  0  0
 26 27  1  0  0  0  0
 24 28  1  0  0  0  0
 10 26  2  0  0  0  0
 24 25  1  0  0  0  0
 23 24  2  0  0  0  0
 10 23  1  0  0  0  0
 10 22  1  0  0  0  0
 12 22  1  0  0  0  0
 12 21  1  0  0  0  0
 11 22  1  0  0  0  0
 11 20  1  0  0  0  0
  2 21  1  0  0  0  0
 15 19  1  0  0  0  0
 14 19  2  0  0  0  0
  2 20  1  0  0  0  0
  2 13  1  0  0  0  0
 15 18  2  0  0  0  0
 13 14  1  0  0  0  0
 14 17  1  0  0  0  0
 13 16  2  0  0  0  0
 17 18  1  0  0  0  0
  5 35  1  0  0  0  0
  6 36  1  0  0  0  0
  8 37  1  0  0  0  0
 11 38  1  0  0  0  0
 11 39  1  0  0  0  0
 12 40  1  0  0  0  0
 12 41  1  0  0  0  0
 15 42  1  0  0  0  0
 18 43  1  0  0  0  0
 19 44  1  0  0  0  0
 20 45  1  0  0  0  0
 20 46  1  0  0  0  0
 21 47  1  0  0  0  0
 21 48  1  0  0  0  0
 23 49  1  0  0  0  0
 26 50  1  0  0  0  0
 28 51  1  0  0  0  0
 29 52  1  0  0  0  0
 29 53  1  0  0  0  0
 31 54  1  0  0  0  0
 32 55  1  0  0  0  0
 33 56  1  0  0  0  0
 34 57  1  0  0  0  0
M  END
> <OPENEYE_ISO_SMILES>
c1ccc2c(c1)cncc2NC(=O)Cc3cc(cc(c3)Cl)N4CCN(CC4)C(=O)c5ccco5

> <OPENEYE_INCHI>
InChI=1S/C26H23ClN4O3/c27-20-12-18(14-25(32)29-23-17-28-16-19-4-1-2-5-22(19)23)13-21(15-20)30-7-9-31(10-8-30)26(33)24-6-3-11-34-24/h1-6,11-13,15-17H,7-10,14H2,(H,29,32)

> <OPENEYE_INCHIKEY>
KIVBNAMDYXZGMT-UHFFFAOYSA-N

> <FORMULA>
C26H23ClN4O3

$$$$
