QTC
  -OEChem-05102419333D

 40 42  0     0  0  0  0  0  0999 V2000
    3.1880    1.9080   -1.5620 N   0  0  0  0  0  0  0  0  0  0  0  0
   -3.9250   -1.2250   -0.3640 C   0  0  0  0  0  0  0  0  0  0  0  0
   -2.6850   -1.3320    0.2410 C   0  0  0  0  0  0  0  0  0  0  0  0
   -2.1980   -0.2910    1.0080 C   0  0  0  0  0  0  0  0  0  0  0  0
   -0.8470   -0.4070    1.6660 C   0  0  0  0  0  0  0  0  0  0  0  0
    0.2130    0.1190    0.7330 C   0  0  0  0  0  0  0  0  0  0  0  0
    2.2580    1.5160   -0.7030 C   0  0  0  0  0  0  0  0  0  0  0  0
    6.0120   -0.2380   -0.7210 C   0  0  0  0  0  0  0  0  0  0  0  0
    5.3460   -1.6720    1.0840 C   0  0  0  0  0  0  0  0  0  0  0  0
    3.7710   -0.0970    0.2240 C   0  0  0  0  0  0  0  0  0  0  0  0
   -0.0980    0.5450   -0.3590 O   0  0  0  0  0  0  0  0  0  0  0  0
   -4.5400   -2.5350   -1.3220 Cl  0  0  0  0  0  0  0  0  0  0  0  0
   -4.6770   -0.0750   -0.2000 C   0  0  0  0  0  0  0  0  0  0  0  0
   -2.9500    0.8580    1.1720 C   0  0  0  0  0  0  0  0  0  0  0  0
   -4.1870    0.9680    0.5640 C   0  0  0  0  0  0  0  0  0  0  0  0
   -5.0060    2.2200    0.7430 C   0  0  0  0  0  0  0  0  0  0  0  0
   -4.6580    3.2190   -0.3630 C   0  0  0  0  0  0  0  0  0  0  0  0
    1.5060    0.1140    1.1120 N   0  0  0  0  0  0  0  0  0  0  0  0
    2.4980    0.5140    0.2140 C   0  0  0  0  0  0  0  0  0  0  0  0
    4.1010   -1.1210    1.1220 C   0  0  0  0  0  0  0  0  0  0  0  0
    6.2980   -1.2310    0.1660 C   0  0  0  0  0  0  0  0  0  0  0  0
    4.7390    0.3530   -0.7110 C   0  0  0  0  0  0  0  0  0  0  0  0
    4.3890    1.3800   -1.6020 C   0  0  0  0  0  0  0  0  0  0  0  0
   -2.0970   -2.2290    0.1130 H   0  0  0  0  0  0  0  0  0  0  0  0
   -0.8410    0.1750    2.5880 H   0  0  0  0  0  0  0  0  0  0  0  0
   -0.6440   -1.4530    1.8950 H   0  0  0  0  0  0  0  0  0  0  0  0
    1.2890    1.9920   -0.7220 H   0  0  0  0  0  0  0  0  0  0  0  0
    6.7600    0.0930   -1.4270 H   0  0  0  0  0  0  0  0  0  0  0  0
    5.6010   -2.4610    1.7760 H   0  0  0  0  0  0  0  0  0  0  0  0
   -5.6460    0.0070   -0.6680 H   0  0  0  0  0  0  0  0  0  0  0  0
   -2.5690    1.6710    1.7720 H   0  0  0  0  0  0  0  0  0  0  0  0
   -6.0660    1.9720    0.6890 H   0  0  0  0  0  0  0  0  0  0  0  0
   -4.7860    2.6620    1.7150 H   0  0  0  0  0  0  0  0  0  0  0  0
   -5.2510    4.1250   -0.2330 H   0  0  0  0  0  0  0  0  0  0  0  0
   -3.5980    3.4670   -0.3080 H   0  0  0  0  0  0  0  0  0  0  0  0
   -4.8790    2.7770   -1.3340 H   0  0  0  0  0  0  0  0  0  0  0  0
    1.7480   -0.1670    2.0080 H   0  0  0  0  0  0  0  0  0  0  0  0
    3.3730   -1.4710    1.8390 H   0  0  0  0  0  0  0  0  0  0  0  0
    7.2780   -1.6850    0.1570 H   0  0  0  0  0  0  0  0  0  0  0  0
    5.1100    1.7370   -2.3220 H   0  0  0  0  0  0  0  0  0  0  0  0
  8 21  2  0  0  0  0
  8 22  1  0  0  0  0
  9 21  1  0  0  0  0
 22 23  2  0  0  0  0
  1 23  1  0  0  0  0
 10 22  1  0  0  0  0
  1  7  2  0  0  0  0
  9 20  2  0  0  0  0
 10 20  1  0  0  0  0
 10 19  2  0  0  0  0
  7 19  1  0  0  0  0
 18 19  1  0  0  0  0
  6 18  1  0  0  0  0
  5  6  1  0  0  0  0
  6 11  2  0  0  0  0
  4  5  1  0  0  0  0
  3  4  2  0  0  0  0
  4 14  1  0  0  0  0
  2  3  1  0  0  0  0
 14 15  2  0  0  0  0
  2 13  2  0  0  0  0
  2 12  1  0  0  0  0
 13 15  1  0  0  0  0
 15 16  1  0  0  0  0
 16 17  1  0  0  0  0
  3 24  1  0  0  0  0
  5 25  1  0  0  0  0
  5 26  1  0  0  0  0
  7 27  1  0  0  0  0
  8 28  1  0  0  0  0
  9 29  1  0  0  0  0
 13 30  1  0  0  0  0
 14 31  1  0  0  0  0
 16 32  1  0  0  0  0
 16 33  1  0  0  0  0
 17 34  1  0  0  0  0
 17 35  1  0  0  0  0
 17 36  1  0  0  0  0
 18 37  1  0  0  0  0
 20 38  1  0  0  0  0
 21 39  1  0  0  0  0
 23 40  1  0  0  0  0
M  END
> <OPENEYE_ISO_SMILES>
CCc1cc(cc(c1)Cl)CC(=O)Nc2cncc3c2cccc3

> <OPENEYE_INCHI>
InChI=1S/C19H17ClN2O/c1-2-13-7-14(9-16(20)8-13)10-19(23)22-18-12-21-11-15-5-3-4-6-17(15)18/h3-9,11-12H,2,10H2,1H3,(H,22,23)

> <OPENEYE_INCHIKEY>
AJZWQKNTPFPYEK-UHFFFAOYSA-N

> <FORMULA>
C19H17ClN2O

$$$$
