QV0
  -OEChem-05102419333D

 46 50  0     1  0  0  0  0  0999 V2000
    3.0250   -2.9220    0.6430 N   0  0  0  0  0  0  0  0  0  0  0  0
   -0.9330    2.8800    0.8350 C   0  0  0  0  0  0  0  0  0  0  0  0
   -0.8010    2.5040   -0.6460 C   0  0  0  0  0  0  0  0  0  0  0  0
   -1.0580    1.0000   -0.7840 C   0  0  1  0  0  0  0  0  0  0  0  0
   -1.2270    0.6510   -2.2650 C   0  0  0  0  0  0  0  0  0  0  0  0
    0.1390    0.7790   -2.9510 C   0  0  0  0  0  0  0  0  0  0  0  0
    0.1050    0.2390   -0.2120 C   0  0  0  0  0  0  0  0  0  0  0  0
    4.1360   -2.3180    0.9910 C   0  0  0  0  0  0  0  0  0  0  0  0
    5.4920   -0.2710    1.0620 C   0  0  0  0  0  0  0  0  0  0  0  0
    4.5940    1.7390    0.1090 C   0  0  0  0  0  0  0  0  0  0  0  0
   -2.3180    0.6330   -0.0400 C   0  0  0  0  0  0  0  0  0  0  0  0
   -2.9370   -0.5700   -0.3330 C   0  0  0  0  0  0  0  0  0  0  0  0
    0.1840    0.1320    0.9930 O   0  0  0  0  0  0  0  0  0  0  0  0
   -2.2870    2.6620    1.2360 O   0  0  0  0  0  0  0  0  0  0  0  0
   -2.8570    1.4700    0.9220 C   0  0  0  0  0  0  0  0  0  0  0  0
   -4.0180    1.0940    1.5900 C   0  0  0  0  0  0  0  0  0  0  0  0
   -4.6320   -0.1070    1.2950 C   0  0  0  0  0  0  0  0  0  0  0  0
   -4.0920   -0.9400    0.3310 C   0  0  0  0  0  0  0  0  0  0  0  0
   -4.8640   -2.4490   -0.0440 Cl  0  0  0  0  0  0  0  0  0  0  0  0
    1.0540   -0.3250   -0.9590 N   0  0  0  0  0  0  0  0  0  0  0  0
    1.0600   -0.3190   -2.4170 C   0  0  0  0  0  0  0  0  0  0  0  0
    2.1090   -0.9630   -0.3040 C   0  0  0  0  0  0  0  0  0  0  0  0
    3.2800   -0.2520    0.0420 C   0  0  0  0  0  0  0  0  0  0  0  0
    3.4410    1.1080   -0.2500 C   0  0  0  0  0  0  0  0  0  0  0  0
    5.6150    1.0520    0.7620 C   0  0  0  0  0  0  0  0  0  0  0  0
    4.3180   -0.9540    0.7070 C   0  0  0  0  0  0  0  0  0  0  0  0
    2.0330   -2.3010    0.0210 C   0  0  0  0  0  0  0  0  0  0  0  0
   -0.2680    2.2570    1.4330 H   0  0  0  0  0  0  0  0  0  0  0  0
   -0.6750    3.9300    0.9720 H   0  0  0  0  0  0  0  0  0  0  0  0
   -1.5350    3.0570   -1.2330 H   0  0  0  0  0  0  0  0  0  0  0  0
    0.2030    2.7400   -0.9970 H   0  0  0  0  0  0  0  0  0  0  0  0
   -1.5920   -0.3710   -2.3620 H   0  0  0  0  0  0  0  0  0  0  0  0
   -1.9350    1.3390   -2.7260 H   0  0  0  0  0  0  0  0  0  0  0  0
    0.0190    0.6640   -4.0280 H   0  0  0  0  0  0  0  0  0  0  0  0
    0.5670    1.7570   -2.7330 H   0  0  0  0  0  0  0  0  0  0  0  0
    4.9140   -2.8700    1.4970 H   0  0  0  0  0  0  0  0  0  0  0  0
    6.2920   -0.7900    1.5680 H   0  0  0  0  0  0  0  0  0  0  0  0
    4.7190    2.7880   -0.1170 H   0  0  0  0  0  0  0  0  0  0  0  0
   -2.5170   -1.2220   -1.0840 H   0  0  0  0  0  0  0  0  0  0  0  0
   -4.4400    1.7430    2.3420 H   0  0  0  0  0  0  0  0  0  0  0  0
   -5.5330   -0.3950    1.8150 H   0  0  0  0  0  0  0  0  0  0  0  0
    0.7170   -1.2860   -2.7830 H   0  0  0  0  0  0  0  0  0  0  0  0
    2.0750   -0.1410   -2.7720 H   0  0  0  0  0  0  0  0  0  0  0  0
    2.6580    1.6520   -0.7560 H   0  0  0  0  0  0  0  0  0  0  0  0
    6.5190    1.5770    1.0350 H   0  0  0  0  0  0  0  0  0  0  0  0
    1.1440   -2.8560   -0.2380 H   0  0  0  0  0  0  0  0  0  0  0  0
  9 25  2  0  0  0  0
  9 26  1  0  0  0  0
 10 25  1  0  0  0  0
  8 26  2  0  0  0  0
  1  8  1  0  0  0  0
 23 26  1  0  0  0  0
  1 27  2  0  0  0  0
 10 24  2  0  0  0  0
 23 24  1  0  0  0  0
 22 23  2  0  0  0  0
  6 21  1  0  0  0  0
 20 21  1  0  0  0  0
 22 27  1  0  0  0  0
 20 22  1  0  0  0  0
  5  6  1  0  0  0  0
  7 20  1  0  0  0  0
  4  5  1  0  0  0  0
  4  7  1  0  0  0  0
  7 13  2  0  0  0  0
  3  4  1  0  0  0  0
  4 11  1  0  0  0  0
  2  3  1  0  0  0  0
 11 12  2  0  0  0  0
 12 18  1  0  0  0  0
 11 15  1  0  0  0  0
  2 14  1  0  0  0  0
 18 19  1  0  0  0  0
 17 18  2  0  0  0  0
 14 15  1  0  0  0  0
 15 16  2  0  0  0  0
 16 17  1  0  0  0  0
  2 28  1  0  0  0  0
  2 29  1  0  0  0  0
  3 30  1  0  0  0  0
  3 31  1  0  0  0  0
  5 32  1  0  0  0  0
  5 33  1  0  0  0  0
  6 34  1  0  0  0  0
  6 35  1  0  0  0  0
  8 36  1  0  0  0  0
  9 37  1  0  0  0  0
 10 38  1  0  0  0  0
 12 39  1  0  0  0  0
 16 40  1  0  0  0  0
 17 41  1  0  0  0  0
 21 42  1  0  0  0  0
 21 43  1  0  0  0  0
 24 44  1  0  0  0  0
 25 45  1  0  0  0  0
 27 46  1  0  0  0  0
M  END
> <OPENEYE_ISO_SMILES>
c1ccc2c(c1)cncc2N3CCC[C@@]4(C3=O)CCOc5c4cc(cc5)Cl

> <OPENEYE_INCHI>
InChI=1S/C22H19ClN2O2/c23-16-6-7-20-18(12-16)22(9-11-27-20)8-3-10-25(21(22)26)19-14-24-13-15-4-1-2-5-17(15)19/h1-2,4-7,12-14H,3,8-11H2/t22-/m1/s1

> <OPENEYE_INCHIKEY>
SVWQDFXKODKDNW-JOCHJYFZSA-N

> <FORMULA>
C22H19ClN2O2

$$$$
