QV9
  -OEChem-05102419333D

 38 41  0     1  0  0  0  0  0999 V2000
    3.6070   -2.3830   -0.6500 N   0  0  0  0  0  0  0  0  0  0  0  0
   -2.4880   -0.0930    0.4140 C   0  0  0  0  0  0  0  0  0  0  0  0
   -3.5530    0.7400    0.1250 C   0  0  0  0  0  0  0  0  0  0  0  0
   -1.2030    0.4860    0.9470 C   0  0  1  0  0  0  0  0  0  0  0  0
   -0.8290   -0.1750    2.2940 C   0  0  0  0  0  0  0  0  0  0  0  0
    0.7110   -0.2490    2.1930 C   0  0  0  0  0  0  0  0  0  0  0  0
    2.2300   -0.6690    0.2090 C   0  0  0  0  0  0  0  0  0  0  0  0
    4.4830   -0.1980   -0.5650 C   0  0  0  0  0  0  0  0  0  0  0  0
    5.3540    2.0250   -0.4690 C   0  0  0  0  0  0  0  0  0  0  0  0
    3.1210    1.6240    0.3100 C   0  0  0  0  0  0  0  0  0  0  0  0
   -0.0700    0.2290   -1.1770 O   0  0  0  0  0  0  0  0  0  0  0  0
   -0.0480    0.1430    0.0330 C   0  0  0  0  0  0  0  0  0  0  0  0
   -2.6030   -1.4570    0.2190 C   0  0  0  0  0  0  0  0  0  0  0  0
   -3.7830   -1.9890   -0.2650 C   0  0  0  0  0  0  0  0  0  0  0  0
   -4.8490   -1.1570   -0.5550 C   0  0  0  0  0  0  0  0  0  0  0  0
   -4.7340    0.2070   -0.3600 C   0  0  0  0  0  0  0  0  0  0  0  0
   -6.0730    1.2520   -0.7230 Cl  0  0  0  0  0  0  0  0  0  0  0  0
    1.0080   -0.2710    0.7560 N   0  0  0  0  0  0  0  0  0  0  0  0
    3.2640    0.2670   -0.0070 C   0  0  0  0  0  0  0  0  0  0  0  0
    4.1560    2.4800    0.0780 C   0  0  0  0  0  0  0  0  0  0  0  0
    5.5280    0.7130   -0.7890 C   0  0  0  0  0  0  0  0  0  0  0  0
    4.6060   -1.5620   -0.8750 C   0  0  0  0  0  0  0  0  0  0  0  0
    2.4540   -1.9870   -0.1310 C   0  0  0  0  0  0  0  0  0  0  0  0
   -3.4620    1.8050    0.2770 H   0  0  0  0  0  0  0  0  0  0  0  0
   -1.2900    1.5670    1.0620 H   0  0  0  0  0  0  0  0  0  0  0  0
   -1.1350    0.4490    3.1340 H   0  0  0  0  0  0  0  0  0  0  0  0
   -1.2640   -1.1720    2.3730 H   0  0  0  0  0  0  0  0  0  0  0  0
    1.1620    0.6270    2.6580 H   0  0  0  0  0  0  0  0  0  0  0  0
    1.0770   -1.1600    2.6670 H   0  0  0  0  0  0  0  0  0  0  0  0
    6.1590    2.7250   -0.6420 H   0  0  0  0  0  0  0  0  0  0  0  0
    2.1980    1.9890    0.7340 H   0  0  0  0  0  0  0  0  0  0  0  0
   -1.7710   -2.1060    0.4450 H   0  0  0  0  0  0  0  0  0  0  0  0
   -3.8730   -3.0540   -0.4170 H   0  0  0  0  0  0  0  0  0  0  0  0
   -5.7710   -1.5730   -0.9330 H   0  0  0  0  0  0  0  0  0  0  0  0
    4.0460    3.5260    0.3230 H   0  0  0  0  0  0  0  0  0  0  0  0
    6.4620    0.3750   -1.2120 H   0  0  0  0  0  0  0  0  0  0  0  0
    5.5260   -1.9370   -1.3000 H   0  0  0  0  0  0  0  0  0  0  0  0
    1.6710   -2.7130    0.0290 H   0  0  0  0  0  0  0  0  0  0  0  0
  9 21  2  0  0  0  0
  8 21  1  0  0  0  0
  8 22  2  0  0  0  0
  1 22  1  0  0  0  0
  9 20  1  0  0  0  0
  8 19  1  0  0  0  0
  1 23  2  0  0  0  0
 10 20  2  0  0  0  0
 10 19  1  0  0  0  0
  7 19  2  0  0  0  0
  6 18  1  0  0  0  0
  5  6  1  0  0  0  0
  7 23  1  0  0  0  0
  7 18  1  0  0  0  0
 12 18  1  0  0  0  0
  4  5  1  0  0  0  0
  4 12  1  0  0  0  0
  2  4  1  0  0  0  0
 11 12  2  0  0  0  0
  2  3  2  0  0  0  0
  2 13  1  0  0  0  0
  3 16  1  0  0  0  0
 13 14  2  0  0  0  0
 16 17  1  0  0  0  0
 15 16  2  0  0  0  0
 14 15  1  0  0  0  0
  3 24  1  0  0  0  0
  4 25  1  0  0  0  0
  5 26  1  0  0  0  0
  5 27  1  0  0  0  0
  6 28  1  0  0  0  0
  6 29  1  0  0  0  0
  9 30  1  0  0  0  0
 10 31  1  0  0  0  0
 13 32  1  0  0  0  0
 14 33  1  0  0  0  0
 15 34  1  0  0  0  0
 20 35  1  0  0  0  0
 21 36  1  0  0  0  0
 22 37  1  0  0  0  0
 23 38  1  0  0  0  0
M  END
> <OPENEYE_ISO_SMILES>
c1ccc2c(c1)cncc2N3CC[C@@H](C3=O)c4cccc(c4)Cl

> <OPENEYE_INCHI>
InChI=1S/C19H15ClN2O/c20-15-6-3-5-13(10-15)17-8-9-22(19(17)23)18-12-21-11-14-4-1-2-7-16(14)18/h1-7,10-12,17H,8-9H2/t17-/m1/s1

> <OPENEYE_INCHIKEY>
RNKBROMGPBKNFK-QGZVFWFLSA-N

> <FORMULA>
C19H15ClN2O

$$$$
