QVG
  -OEChem-05102419333D

 39 42  0     1  0  0  0  0  0999 V2000
    0.7980   -0.7250    0.2570 N   0  0  0  0  0  0  0  0  0  0  0  0
    4.1580   -0.7310   -2.1900 C   0  0  0  0  0  0  0  0  0  0  0  0
    1.9410   -1.2740   -1.7970 C   0  0  0  0  0  0  0  0  0  0  0  0
    1.9460   -0.7090   -0.5390 C   0  0  0  0  0  0  0  0  0  0  0  0
   -0.1780   -1.6220    0.0130 C   0  0  0  0  0  0  0  0  0  0  0  0
   -1.4010   -1.6630    0.8930 C   0  0  1  0  0  0  0  0  0  0  0  0
   -3.4610   -2.9470    1.4220 C   0  0  0  0  0  0  0  0  0  0  0  0
   -4.0670    1.4640   -0.3090 C   0  0  0  0  0  0  0  0  0  0  0  0
   -1.8530    0.6720    0.1560 C   0  0  0  0  0  0  0  0  0  0  0  0
    3.1420   -0.1240   -0.0700 C   0  0  0  0  0  0  0  0  0  0  0  0
   -2.0590    3.2550   -0.6250 Cl  0  0  0  0  0  0  0  0  0  0  0  0
   -2.7020    1.6910   -0.2330 C   0  0  0  0  0  0  0  0  0  0  0  0
   -4.8990    2.4590   -0.6870 F   0  0  0  0  0  0  0  0  0  0  0  0
   -4.5750    0.2170    0.0020 C   0  0  0  0  0  0  0  0  0  0  0  0
   -2.3590   -0.5780    0.4700 C   0  0  0  0  0  0  0  0  0  0  0  0
   -3.7220   -0.8100    0.3920 C   0  0  0  0  0  0  0  0  0  0  0  0
   -4.2590   -2.0240    0.6820 O   0  0  0  0  0  0  0  0  0  0  0  0
   -2.0780   -3.0290    0.7620 C   0  0  0  0  0  0  0  0  0  0  0  0
   -0.0720   -2.3970   -0.9140 O   0  0  0  0  0  0  0  0  0  0  0  0
    3.0200   -1.2670   -2.5650 N   0  0  0  0  0  0  0  0  0  0  0  0
    3.2360    0.4710    1.1950 C   0  0  0  0  0  0  0  0  0  0  0  0
    4.4180    1.0270    1.5900 C   0  0  0  0  0  0  0  0  0  0  0  0
    4.5090    1.6010    2.8100 F   0  0  0  0  0  0  0  0  0  0  0  0
    4.2740   -0.1330   -0.9250 C   0  0  0  0  0  0  0  0  0  0  0  0
    5.4730    0.4520   -0.4870 C   0  0  0  0  0  0  0  0  0  0  0  0
    5.5320    1.0180    0.7490 C   0  0  0  0  0  0  0  0  0  0  0  0
    0.7050   -0.0940    0.9870 H   0  0  0  0  0  0  0  0  0  0  0  0
    5.0090   -0.7530   -2.8550 H   0  0  0  0  0  0  0  0  0  0  0  0
    1.0350   -1.7320   -2.1650 H   0  0  0  0  0  0  0  0  0  0  0  0
   -1.1070   -1.5020    1.9300 H   0  0  0  0  0  0  0  0  0  0  0  0
   -3.3560   -2.6010    2.4510 H   0  0  0  0  0  0  0  0  0  0  0  0
   -3.9310   -3.9300    1.4120 H   0  0  0  0  0  0  0  0  0  0  0  0
   -0.7900    0.8520    0.2150 H   0  0  0  0  0  0  0  0  0  0  0  0
   -5.6390    0.0390   -0.0570 H   0  0  0  0  0  0  0  0  0  0  0  0
   -2.1890   -3.2840   -0.2920 H   0  0  0  0  0  0  0  0  0  0  0  0
   -1.4760   -3.7870    1.2630 H   0  0  0  0  0  0  0  0  0  0  0  0
    2.3770    0.4950    1.8500 H   0  0  0  0  0  0  0  0  0  0  0  0
    6.3440    0.4520   -1.1270 H   0  0  0  0  0  0  0  0  0  0  0  0
    6.4550    1.4670    1.0850 H   0  0  0  0  0  0  0  0  0  0  0  0
 25 26  2  0  0  0  0
 24 25  1  0  0  0  0
 22 26  1  0  0  0  0
  2 24  2  0  0  0  0
 10 24  1  0  0  0  0
  2 20  1  0  0  0  0
 22 23  1  0  0  0  0
 21 22  2  0  0  0  0
 10 21  1  0  0  0  0
  4 10  2  0  0  0  0
  3 20  2  0  0  0  0
  3  4  1  0  0  0  0
  1  4  1  0  0  0  0
  1  5  1  0  0  0  0
  5  6  1  0  0  0  0
  5 19  2  0  0  0  0
  6 18  1  0  0  0  0
  7 18  1  0  0  0  0
  6 15  1  0  0  0  0
  7 17  1  0  0  0  0
  9 15  2  0  0  0  0
 15 16  1  0  0  0  0
  9 12  1  0  0  0  0
 16 17  1  0  0  0  0
 14 16  2  0  0  0  0
 11 12  1  0  0  0  0
  8 12  2  0  0  0  0
  8 14  1  0  0  0  0
  8 13  1  0  0  0  0
  1 27  1  0  0  0  0
  2 28  1  0  0  0  0
  3 29  1  0  0  0  0
  6 30  1  0  0  0  0
  7 31  1  0  0  0  0
  7 32  1  0  0  0  0
  9 33  1  0  0  0  0
 14 34  1  0  0  0  0
 18 35  1  0  0  0  0
 18 36  1  0  0  0  0
 21 37  1  0  0  0  0
 25 38  1  0  0  0  0
 26 39  1  0  0  0  0
M  END
> <OPENEYE_ISO_SMILES>
c1cc2cncc(c2cc1F)NC(=O)[C@@H]3CCOc4c3cc(c(c4)F)Cl

> <OPENEYE_INCHI>
InChI=1S/C19H13ClF2N2O2/c20-15-6-14-12(3-4-26-18(14)7-16(15)22)19(25)24-17-9-23-8-10-1-2-11(21)5-13(10)17/h1-2,5-9,12H,3-4H2,(H,24,25)/t12-/m1/s1

> <OPENEYE_INCHIKEY>
VPVQGEOZXDRIEP-GFCCVEGCSA-N

> <FORMULA>
C19H13ClF2N2O2

$$$$
