QWL
  -OEChem-05102419333D

 40 43  0     1  0  0  0  0  0999 V2000
    1.0860   -0.7890    0.2140 N   0  0  0  0  0  0  0  0  0  0  0  0
    4.3780   -0.3060   -2.2780 C   0  0  0  0  0  0  0  0  0  0  0  0
    2.2150   -1.0460   -1.9040 C   0  0  0  0  0  0  0  0  0  0  0  0
    2.2100   -0.6100   -0.5960 C   0  0  0  0  0  0  0  0  0  0  0  0
    0.1720   -1.7290   -0.1000 C   0  0  0  0  0  0  0  0  0  0  0  0
   -1.0230   -1.9460    0.7920 C   0  0  1  0  0  0  0  0  0  0  0  0
   -2.9080   -3.4900    1.3110 C   0  0  0  0  0  0  0  0  0  0  0  0
   -3.9530    1.0480   -0.0940 C   0  0  0  0  0  0  0  0  0  0  0  0
   -1.6680    0.3880    0.2090 C   0  0  0  0  0  0  0  0  0  0  0  0
    3.3730    0.0130   -0.0900 C   0  0  0  0  0  0  0  0  0  0  0  0
   -2.0900    2.9850   -0.4190 Cl  0  0  0  0  0  0  0  0  0  0  0  0
   -2.6050    1.3630   -0.0780 C   0  0  0  0  0  0  0  0  0  0  0  0
   -5.1290    2.2730   -0.4540 Cl  0  0  0  0  0  0  0  0  0  0  0  0
   -4.3610   -0.2440    0.1760 C   0  0  0  0  0  0  0  0  0  0  0  0
   -2.0700   -0.9090    0.4810 C   0  0  0  0  0  0  0  0  0  0  0  0
   -3.4200   -1.2260    0.4630 C   0  0  0  0  0  0  0  0  0  0  0  0
   -3.8540   -2.5310    0.7250 N   0  0  0  0  0  0  0  0  0  0  0  0
   -1.5760   -3.3520    0.5610 C   0  0  0  0  0  0  0  0  0  0  0  0
    0.3120   -2.4010   -1.1000 O   0  0  0  0  0  0  0  0  0  0  0  0
    3.2720   -0.8850   -2.6850 N   0  0  0  0  0  0  0  0  0  0  0  0
    3.4540    0.4840    1.2260 C   0  0  0  0  0  0  0  0  0  0  0  0
    4.6020    1.0840    1.6550 C   0  0  0  0  0  0  0  0  0  0  0  0
    4.6820    1.5390    2.9240 F   0  0  0  0  0  0  0  0  0  0  0  0
    4.4820    0.1700   -0.9610 C   0  0  0  0  0  0  0  0  0  0  0  0
    5.6460    0.7960   -0.4870 C   0  0  0  0  0  0  0  0  0  0  0  0
    5.6940    1.2400    0.7990 C   0  0  0  0  0  0  0  0  0  0  0  0
    0.9640   -0.2390    1.0040 H   0  0  0  0  0  0  0  0  0  0  0  0
    5.2110   -0.2000   -2.9560 H   0  0  0  0  0  0  0  0  0  0  0  0
    1.3350   -1.5310   -2.3010 H   0  0  0  0  0  0  0  0  0  0  0  0
   -0.7170   -1.8470    1.8340 H   0  0  0  0  0  0  0  0  0  0  0  0
   -2.7620   -3.2660    2.3680 H   0  0  0  0  0  0  0  0  0  0  0  0
   -3.2920   -4.5040    1.1980 H   0  0  0  0  0  0  0  0  0  0  0  0
   -0.6180    0.6380    0.2200 H   0  0  0  0  0  0  0  0  0  0  0  0
   -5.4120   -0.4920    0.1640 H   0  0  0  0  0  0  0  0  0  0  0  0
   -4.7650   -2.7970    0.5230 H   0  0  0  0  0  0  0  0  0  0  0  0
   -1.7390   -3.5100   -0.5050 H   0  0  0  0  0  0  0  0  0  0  0  0
   -0.8670   -4.0900    0.9370 H   0  0  0  0  0  0  0  0  0  0  0  0
    2.6120    0.3800    1.8940 H   0  0  0  0  0  0  0  0  0  0  0  0
    6.4980    0.9230   -1.1380 H   0  0  0  0  0  0  0  0  0  0  0  0
    6.5900    1.7200    1.1620 H   0  0  0  0  0  0  0  0  0  0  0  0
 25 26  2  0  0  0  0
 24 25  1  0  0  0  0
 22 26  1  0  0  0  0
  2 24  2  0  0  0  0
 10 24  1  0  0  0  0
  2 20  1  0  0  0  0
 21 22  2  0  0  0  0
 22 23  1  0  0  0  0
 10 21  1  0  0  0  0
  4 10  2  0  0  0  0
  3 20  2  0  0  0  0
  3  4  1  0  0  0  0
  1  4  1  0  0  0  0
  1  5  1  0  0  0  0
  6 18  1  0  0  0  0
  7 18  1  0  0  0  0
  5  6  1  0  0  0  0
  5 19  2  0  0  0  0
  6 15  1  0  0  0  0
  7 17  1  0  0  0  0
  9 15  2  0  0  0  0
 15 16  1  0  0  0  0
  9 12  1  0  0  0  0
 16 17  1  0  0  0  0
 14 16  2  0  0  0  0
 11 12  1  0  0  0  0
  8 12  2  0  0  0  0
  8 14  1  0  0  0  0
  8 13  1  0  0  0  0
  1 27  1  0  0  0  0
  2 28  1  0  0  0  0
  3 29  1  0  0  0  0
  6 30  1  0  0  0  0
  7 31  1  0  0  0  0
  7 32  1  0  0  0  0
  9 33  1  0  0  0  0
 14 34  1  0  0  0  0
 17 35  1  0  0  0  0
 18 36  1  0  0  0  0
 18 37  1  0  0  0  0
 21 38  1  0  0  0  0
 25 39  1  0  0  0  0
 26 40  1  0  0  0  0
M  END
> <OPENEYE_ISO_SMILES>
c1cc2cncc(c2cc1F)NC(=O)[C@@H]3CCNc4c3cc(c(c4)Cl)Cl

> <OPENEYE_INCHI>
InChI=1S/C19H14Cl2FN3O/c20-15-6-14-12(3-4-24-17(14)7-16(15)21)19(26)25-18-9-23-8-10-1-2-11(22)5-13(10)18/h1-2,5-9,12,24H,3-4H2,(H,25,26)/t12-/m1/s1

> <OPENEYE_INCHIKEY>
NUXDKRDLDDGPBW-GFCCVEGCSA-N

> <FORMULA>
C19H14Cl2FN3O

$$$$
