QX9
  -OEChem-05102419333D

 37 39  0     0  0  0  0  0  0999 V2000
    0.8590    0.5420    0.5250 N   0  0  0  0  0  0  0  0  0  0  0  0
    4.0460   -1.2100   -0.2490 C   0  0  0  0  0  0  0  0  0  0  0  0
    3.5140   -2.4800   -0.5220 C   0  0  0  0  0  0  0  0  0  0  0  0
    1.3610   -1.7320   -0.1100 C   0  0  0  0  0  0  0  0  0  0  0  0
    1.7790   -0.4490    0.1770 C   0  0  0  0  0  0  0  0  0  0  0  0
   -0.4240    0.4430    0.1210 C   0  0  0  0  0  0  0  0  0  0  0  0
   -2.7890    1.1100    0.0080 C   0  0  0  0  0  0  0  0  0  0  0  0
   -5.2620    0.5120   -1.0750 C   0  0  0  0  0  0  0  0  0  0  0  0
   -3.6480    0.2590    0.6780 C   0  0  0  0  0  0  0  0  0  0  0  0
    3.6710    1.1130    0.3870 C   0  0  0  0  0  0  0  0  0  0  0  0
   -5.9650   -1.1090    0.9760 Cl  0  0  0  0  0  0  0  0  0  0  0  0
   -4.8860   -0.0410    0.1360 C   0  0  0  0  0  0  0  0  0  0  0  0
   -4.4030    1.3630   -1.7430 C   0  0  0  0  0  0  0  0  0  0  0  0
   -3.1660    1.6620   -1.2020 C   0  0  0  0  0  0  0  0  0  0  0  0
   -1.4440    1.4420    0.6010 C   0  0  0  0  0  0  0  0  0  0  0  0
   -0.7560   -0.4510   -0.6280 O   0  0  0  0  0  0  0  0  0  0  0  0
    2.2200   -2.6840   -0.4420 N   0  0  0  0  0  0  0  0  0  0  0  0
    3.1600   -0.1620    0.1110 C   0  0  0  0  0  0  0  0  0  0  0  0
    5.4250   -0.9510   -0.3170 C   0  0  0  0  0  0  0  0  0  0  0  0
    5.8870    0.3000   -0.0420 C   0  0  0  0  0  0  0  0  0  0  0  0
    5.0140    1.3290    0.3060 C   0  0  0  0  0  0  0  0  0  0  0  0
    5.5650    2.7000    0.6030 C   0  0  0  0  0  0  0  0  0  0  0  0
    1.1410    1.3000    1.0610 H   0  0  0  0  0  0  0  0  0  0  0  0
    4.1710   -3.2910   -0.7980 H   0  0  0  0  0  0  0  0  0  0  0  0
    0.3070   -1.9650   -0.0630 H   0  0  0  0  0  0  0  0  0  0  0  0
   -6.2280    0.2780   -1.4980 H   0  0  0  0  0  0  0  0  0  0  0  0
   -3.3530   -0.1720    1.6230 H   0  0  0  0  0  0  0  0  0  0  0  0
    3.0060    1.9180    0.6610 H   0  0  0  0  0  0  0  0  0  0  0  0
   -4.6960    1.7940   -2.6890 H   0  0  0  0  0  0  0  0  0  0  0  0
   -2.4950    2.3270   -1.7250 H   0  0  0  0  0  0  0  0  0  0  0  0
   -1.5070    1.4040    1.6890 H   0  0  0  0  0  0  0  0  0  0  0  0
   -1.1470    2.4430    0.2890 H   0  0  0  0  0  0  0  0  0  0  0  0
    6.1130   -1.7390   -0.5840 H   0  0  0  0  0  0  0  0  0  0  0  0
    6.9480    0.4970   -0.0940 H   0  0  0  0  0  0  0  0  0  0  0  0
    5.6010    3.2840   -0.3170 H   0  0  0  0  0  0  0  0  0  0  0  0
    4.9210    3.2010    1.3260 H   0  0  0  0  0  0  0  0  0  0  0  0
    6.5700    2.6070    1.0150 H   0  0  0  0  0  0  0  0  0  0  0  0
 19 20  2  0  0  0  0
  2 19  1  0  0  0  0
 20 21  1  0  0  0  0
  2  3  2  0  0  0  0
  2 18  1  0  0  0  0
 21 22  1  0  0  0  0
 10 21  2  0  0  0  0
  3 17  1  0  0  0  0
 10 18  1  0  0  0  0
  5 18  2  0  0  0  0
  4 17  2  0  0  0  0
  4  5  1  0  0  0  0
  1  5  1  0  0  0  0
  1  6  1  0  0  0  0
  6 15  1  0  0  0  0
  6 16  2  0  0  0  0
  7 15  1  0  0  0  0
  7  9  2  0  0  0  0
  7 14  1  0  0  0  0
  9 12  1  0  0  0  0
 13 14  2  0  0  0  0
 11 12  1  0  0  0  0
  8 12  2  0  0  0  0
  8 13  1  0  0  0  0
  1 23  1  0  0  0  0
  3 24  1  0  0  0  0
  4 25  1  0  0  0  0
  8 26  1  0  0  0  0
  9 27  1  0  0  0  0
 10 28  1  0  0  0  0
 13 29  1  0  0  0  0
 14 30  1  0  0  0  0
 15 31  1  0  0  0  0
 15 32  1  0  0  0  0
 19 33  1  0  0  0  0
 20 34  1  0  0  0  0
 22 35  1  0  0  0  0
 22 36  1  0  0  0  0
 22 37  1  0  0  0  0
M  END
> <OPENEYE_ISO_SMILES>
Cc1ccc2cncc(c2c1)NC(=O)Cc3cccc(c3)Cl

> <OPENEYE_INCHI>
InChI=1S/C18H15ClN2O/c1-12-5-6-14-10-20-11-17(16(14)7-12)21-18(22)9-13-3-2-4-15(19)8-13/h2-8,10-11H,9H2,1H3,(H,21,22)

> <OPENEYE_INCHIKEY>
BSUXNZPXAUGDQM-UHFFFAOYSA-N

> <FORMULA>
C18H15ClN2O

$$$$
