QXR
  -OEChem-05102419333D

 41 42  0     0  0  0  0  0  0999 V2000
    0.8060   -0.2380   -0.9990 N   0  0  0  0  0  0  0  0  0  0  0  0
    2.9750   -0.2680    0.0970 C   0  0  0  0  0  0  0  0  0  0  0  0
    3.8720   -0.9400    0.9210 C   0  0  0  0  0  0  0  0  0  0  0  0
    3.5190   -2.1720    1.4360 C   0  0  0  0  0  0  0  0  0  0  0  0
    1.4690   -2.1120    0.3810 C   0  0  0  0  0  0  0  0  0  0  0  0
    1.7450   -0.8740   -0.1760 C   0  0  0  0  0  0  0  0  0  0  0  0
   -1.5170    0.4010   -1.5620 C   0  0  0  0  0  0  0  0  0  0  0  0
   -4.8800   -1.2770   -1.2080 C   0  0  0  0  0  0  0  0  0  0  0  0
   -4.7670    0.5330    0.3560 C   0  0  0  0  0  0  0  0  0  0  0  0
   -5.4950    1.4800    1.6160 Cl  0  0  0  0  0  0  0  0  0  0  0  0
   -5.4610   -0.5240   -0.2050 C   0  0  0  0  0  0  0  0  0  0  0  0
   -3.6050   -0.9780   -1.6470 C   0  0  0  0  0  0  0  0  0  0  0  0
   -3.4870    0.8290   -0.0800 C   0  0  0  0  0  0  0  0  0  0  0  0
   -2.9080    0.0750   -1.0830 C   0  0  0  0  0  0  0  0  0  0  0  0
   -0.5120   -0.3710   -0.7470 C   0  0  0  0  0  0  0  0  0  0  0  0
   -0.8880   -1.1130    0.1360 O   0  0  0  0  0  0  0  0  0  0  0  0
    2.3490   -2.7140    1.1560 N   0  0  0  0  0  0  0  0  0  0  0  0
    3.2840    0.9480   -0.4240 O   0  0  0  0  0  0  0  0  0  0  0  0
    4.6040    1.4390   -0.1860 C   0  0  0  0  0  0  0  0  0  0  0  0
    5.6270    0.4110   -0.6740 C   0  0  0  0  0  0  0  0  0  0  0  0
    4.8030    2.7550   -0.9410 C   0  0  0  0  0  0  0  0  0  0  0  0
    4.7970    1.6780    1.3130 C   0  0  0  0  0  0  0  0  0  0  0  0
    1.1040    0.3010   -1.7490 H   0  0  0  0  0  0  0  0  0  0  0  0
    4.8320   -0.5040    1.1540 H   0  0  0  0  0  0  0  0  0  0  0  0
    4.2110   -2.6990    2.0760 H   0  0  0  0  0  0  0  0  0  0  0  0
    0.5220   -2.5900    0.1770 H   0  0  0  0  0  0  0  0  0  0  0  0
   -1.4210    0.1260   -2.6130 H   0  0  0  0  0  0  0  0  0  0  0  0
   -1.3340    1.4690   -1.4480 H   0  0  0  0  0  0  0  0  0  0  0  0
   -5.4220   -2.1030   -1.6450 H   0  0  0  0  0  0  0  0  0  0  0  0
   -6.4560   -0.7610    0.1410 H   0  0  0  0  0  0  0  0  0  0  0  0
   -3.1510   -1.5660   -2.4310 H   0  0  0  0  0  0  0  0  0  0  0  0
   -2.9420    1.6490    0.3630 H   0  0  0  0  0  0  0  0  0  0  0  0
    5.5560    0.3140   -1.7570 H   0  0  0  0  0  0  0  0  0  0  0  0
    6.6300    0.7400   -0.4040 H   0  0  0  0  0  0  0  0  0  0  0  0
    5.4230   -0.5530   -0.2090 H   0  0  0  0  0  0  0  0  0  0  0  0
    4.0750    3.4870   -0.5930 H   0  0  0  0  0  0  0  0  0  0  0  0
    5.8100    3.1290   -0.7600 H   0  0  0  0  0  0  0  0  0  0  0  0
    4.6660    2.5850   -2.0090 H   0  0  0  0  0  0  0  0  0  0  0  0
    4.7370    0.7280    1.8430 H   0  0  0  0  0  0  0  0  0  0  0  0
    5.7740    2.1290    1.4870 H   0  0  0  0  0  0  0  0  0  0  0  0
    4.0180    2.3470    1.6780 H   0  0  0  0  0  0  0  0  0  0  0  0
  3  4  2  0  0  0  0
  2  3  1  0  0  0  0
  4 17  1  0  0  0  0
  2 18  1  0  0  0  0
 18 19  1  0  0  0  0
  5 17  2  0  0  0  0
  2  6  2  0  0  0  0
 19 22  1  0  0  0  0
  5  6  1  0  0  0  0
  1  6  1  0  0  0  0
 19 21  1  0  0  0  0
  1 15  1  0  0  0  0
 19 20  1  0  0  0  0
  7 15  1  0  0  0  0
 15 16  2  0  0  0  0
  7 14  1  0  0  0  0
 13 14  2  0  0  0  0
 12 14  1  0  0  0  0
  9 13  1  0  0  0  0
  8 12  2  0  0  0  0
  9 10  1  0  0  0  0
  9 11  2  0  0  0  0
  8 11  1  0  0  0  0
  1 23  1  0  0  0  0
  3 24  1  0  0  0  0
  4 25  1  0  0  0  0
  5 26  1  0  0  0  0
  7 27  1  0  0  0  0
  7 28  1  0  0  0  0
  8 29  1  0  0  0  0
 11 30  1  0  0  0  0
 12 31  1  0  0  0  0
 13 32  1  0  0  0  0
 20 33  1  0  0  0  0
 20 34  1  0  0  0  0
 20 35  1  0  0  0  0
 21 36  1  0  0  0  0
 21 37  1  0  0  0  0
 21 38  1  0  0  0  0
 22 39  1  0  0  0  0
 22 40  1  0  0  0  0
 22 41  1  0  0  0  0
M  END
> <OPENEYE_ISO_SMILES>
CC(C)(C)Oc1ccncc1NC(=O)Cc2cccc(c2)Cl

> <OPENEYE_INCHI>
InChI=1S/C17H19ClN2O2/c1-17(2,3)22-15-7-8-19-11-14(15)20-16(21)10-12-5-4-6-13(18)9-12/h4-9,11H,10H2,1-3H3,(H,20,21)

> <OPENEYE_INCHIKEY>
QOGVQOIEARJILE-UHFFFAOYSA-N

> <FORMULA>
C17H19ClN2O2

$$$$
