QXX
  -OEChem-05102419333D

 31 32  0     0  0  0  0  0  0999 V2000
    1.1660    0.0180    0.8850 N   0  0  0  0  0  0  0  0  0  0  0  0
    1.8790    2.0590   -0.2020 C   0  0  0  0  0  0  0  0  0  0  0  0
    2.1120    0.7350    0.1430 C   0  0  0  0  0  0  0  0  0  0  0  0
   -0.1490    0.2470    0.7000 C   0  0  0  0  0  0  0  0  0  0  0  0
   -1.1690   -0.5990    1.4180 C   0  0  0  0  0  0  0  0  0  0  0  0
   -2.5550   -0.1410    1.0420 C   0  0  0  0  0  0  0  0  0  0  0  0
   -4.4560    1.2590    1.4420 C   0  0  0  0  0  0  0  0  0  0  0  0
   -3.1960   -0.7020   -0.0460 C   0  0  0  0  0  0  0  0  0  0  0  0
   -5.2750   -0.9880   -1.7580 Cl  0  0  0  0  0  0  0  0  0  0  0  0
   -4.4690   -0.2830   -0.3910 C   0  0  0  0  0  0  0  0  0  0  0  0
   -5.0990    0.6980    0.3530 C   0  0  0  0  0  0  0  0  0  0  0  0
   -3.1870    0.8350    1.7890 C   0  0  0  0  0  0  0  0  0  0  0  0
   -0.5120    1.1330   -0.0440 O   0  0  0  0  0  0  0  0  0  0  0  0
    3.3000    0.1300   -0.2580 C   0  0  0  0  0  0  0  0  0  0  0  0
    3.5940   -1.3050    0.0940 C   0  0  0  0  0  0  0  0  0  0  0  0
    2.6060   -2.1310   -0.4520 F   0  0  0  0  0  0  0  0  0  0  0  0
    4.8430   -1.6660   -0.4240 F   0  0  0  0  0  0  0  0  0  0  0  0
    3.6070   -1.4510    1.4850 F   0  0  0  0  0  0  0  0  0  0  0  0
    2.7660    2.7370   -0.9050 N   0  0  0  0  0  0  0  0  0  0  0  0
    3.8980    2.1920   -1.3050 C   0  0  0  0  0  0  0  0  0  0  0  0
    4.2060    0.8810   -0.9900 C   0  0  0  0  0  0  0  0  0  0  0  0
    1.4570   -0.6470    1.5280 H   0  0  0  0  0  0  0  0  0  0  0  0
    0.9610    2.5390    0.1040 H   0  0  0  0  0  0  0  0  0  0  0  0
   -1.0410   -1.6430    1.1330 H   0  0  0  0  0  0  0  0  0  0  0  0
   -1.0330   -0.4970    2.4950 H   0  0  0  0  0  0  0  0  0  0  0  0
   -4.9480    2.0250    2.0230 H   0  0  0  0  0  0  0  0  0  0  0  0
   -2.7040   -1.4680   -0.6270 H   0  0  0  0  0  0  0  0  0  0  0  0
   -6.0900    1.0290    0.0820 H   0  0  0  0  0  0  0  0  0  0  0  0
   -2.6880    1.2700    2.6420 H   0  0  0  0  0  0  0  0  0  0  0  0
    4.6000    2.7810   -1.8750 H   0  0  0  0  0  0  0  0  0  0  0  0
    5.1360    0.4440   -1.3220 H   0  0  0  0  0  0  0  0  0  0  0  0
 15 18  1  0  0  0  0
 20 21  2  0  0  0  0
 19 20  1  0  0  0  0
 14 21  1  0  0  0  0
 15 16  1  0  0  0  0
  2 19  2  0  0  0  0
 14 15  1  0  0  0  0
  3 14  2  0  0  0  0
 15 17  1  0  0  0  0
  2  3  1  0  0  0  0
  1  3  1  0  0  0  0
  1  4  1  0  0  0  0
  4  5  1  0  0  0  0
  4 13  2  0  0  0  0
  5  6  1  0  0  0  0
  6  8  2  0  0  0  0
  6 12  1  0  0  0  0
  8 10  1  0  0  0  0
  7 12  2  0  0  0  0
  9 10  1  0  0  0  0
 10 11  2  0  0  0  0
  7 11  1  0  0  0  0
  1 22  1  0  0  0  0
  2 23  1  0  0  0  0
  5 24  1  0  0  0  0
  5 25  1  0  0  0  0
  7 26  1  0  0  0  0
  8 27  1  0  0  0  0
 11 28  1  0  0  0  0
 12 29  1  0  0  0  0
 20 30  1  0  0  0  0
 21 31  1  0  0  0  0
M  END
> <OPENEYE_ISO_SMILES>
c1cc(cc(c1)Cl)CC(=O)Nc2cnccc2C(F)(F)F

> <OPENEYE_INCHI>
InChI=1S/C14H10ClF3N2O/c15-10-3-1-2-9(6-10)7-13(21)20-12-8-19-5-4-11(12)14(16,17)18/h1-6,8H,7H2,(H,20,21)

> <OPENEYE_INCHIKEY>
LTODPBLUNCYZHX-UHFFFAOYSA-N

> <FORMULA>
C14H10ClF3N2O

$$$$
