QYI
  -OEChem-05102419333D

 43 46  0     1  0  0  0  0  0999 V2000
    2.6550   -1.8930   -2.3560 N   0  0  0  0  0  0  0  0  0  0  0  0
   -3.6740   -0.5440   -0.3960 C   0  0  0  0  0  0  0  0  0  0  0  0
   -4.4490    0.3300   -1.1510 C   0  0  0  0  0  0  0  0  0  0  0  0
   -4.0990    1.6620   -1.2480 C   0  0  0  0  0  0  0  0  0  0  0  0
   -2.9750    2.1300   -0.5910 C   0  0  0  0  0  0  0  0  0  0  0  0
   -2.2030    1.2630    0.1600 C   0  0  0  0  0  0  0  0  0  0  0  0
   -0.4400   -1.3350    0.3040 C   0  0  0  0  0  0  0  0  0  0  0  0
    3.8370   -1.3510   -2.1770 C   0  0  0  0  0  0  0  0  0  0  0  0
    5.2950    0.1550   -0.8970 C   0  0  0  0  0  0  0  0  0  0  0  0
    4.3740    1.3290    0.9830 C   0  0  0  0  0  0  0  0  0  0  0  0
    4.5560    2.1970    2.0020 F   0  0  0  0  0  0  0  0  0  0  0  0
    5.4440    1.0250    0.1390 C   0  0  0  0  0  0  0  0  0  0  0  0
    3.1470    0.7630    0.7910 C   0  0  0  0  0  0  0  0  0  0  0  0
    2.9600   -0.1370   -0.2650 C   0  0  0  0  0  0  0  0  0  0  0  0
    4.0470   -0.4470   -1.1230 C   0  0  0  0  0  0  0  0  0  0  0  0
    1.6170   -1.6280   -1.5770 C   0  0  0  0  0  0  0  0  0  0  0  0
    1.7150   -0.7550   -0.5150 C   0  0  0  0  0  0  0  0  0  0  0  0
    0.6090   -0.4890    0.2960 N   0  0  0  0  0  0  0  0  0  0  0  0
   -0.3860   -2.3750   -0.3180 O   0  0  0  0  0  0  0  0  0  0  0  0
   -1.6810   -0.9880    1.0860 C   0  0  1  0  0  0  0  0  0  0  0  0
   -1.3110   -0.3300    2.2990 O   0  0  0  0  0  0  0  0  0  0  0  0
   -0.5040   -1.1250    3.1690 C   0  0  0  0  0  0  0  0  0  0  0  0
   -2.5510   -0.0730    0.2620 C   0  0  0  0  0  0  0  0  0  0  0  0
   -2.5340    3.8050   -0.7100 Cl  0  0  0  0  0  0  0  0  0  0  0  0
   -4.0530   -1.8470   -0.3220 O   0  0  0  0  0  0  0  0  0  0  0  0
   -3.0870   -2.7990    0.1250 C   0  0  0  0  0  0  0  0  0  0  0  0
   -2.4490   -2.2700    1.4160 C   0  0  0  0  0  0  0  0  0  0  0  0
   -5.3260   -0.0340   -1.6640 H   0  0  0  0  0  0  0  0  0  0  0  0
   -4.7020    2.3380   -1.8360 H   0  0  0  0  0  0  0  0  0  0  0  0
   -1.3260    1.6310    0.6720 H   0  0  0  0  0  0  0  0  0  0  0  0
    4.6510   -1.6010   -2.8410 H   0  0  0  0  0  0  0  0  0  0  0  0
    6.1320   -0.0710   -1.5420 H   0  0  0  0  0  0  0  0  0  0  0  0
    6.4050    1.4870    0.3110 H   0  0  0  0  0  0  0  0  0  0  0  0
    2.3260    1.0070    1.4500 H   0  0  0  0  0  0  0  0  0  0  0  0
    0.6710   -2.1090   -1.7790 H   0  0  0  0  0  0  0  0  0  0  0  0
    0.5960    0.3050    0.8540 H   0  0  0  0  0  0  0  0  0  0  0  0
   -1.0430   -2.0350    3.4340 H   0  0  0  0  0  0  0  0  0  0  0  0
    0.4260   -1.3880    2.6640 H   0  0  0  0  0  0  0  0  0  0  0  0
   -0.2790   -0.5600    4.0730 H   0  0  0  0  0  0  0  0  0  0  0  0
   -3.5750   -3.7530    0.3210 H   0  0  0  0  0  0  0  0  0  0  0  0
   -2.3190   -2.9290   -0.6380 H   0  0  0  0  0  0  0  0  0  0  0  0
   -1.7630   -3.0150    1.8200 H   0  0  0  0  0  0  0  0  0  0  0  0
   -3.2280   -2.0530    2.1460 H   0  0  0  0  0  0  0  0  0  0  0  0
  9 12  2  0  0  0  0
  9 15  1  0  0  0  0
 10 12  1  0  0  0  0
  8 15  2  0  0  0  0
  1  8  1  0  0  0  0
 14 15  1  0  0  0  0
  1 16  2  0  0  0  0
 10 11  1  0  0  0  0
 10 13  2  0  0  0  0
 13 14  1  0  0  0  0
 14 17  2  0  0  0  0
 16 17  1  0  0  0  0
 17 18  1  0  0  0  0
  7 18  1  0  0  0  0
 21 22  1  0  0  0  0
 20 21  1  0  0  0  0
  7 20  1  0  0  0  0
  7 19  2  0  0  0  0
 20 27  1  0  0  0  0
 20 23  1  0  0  0  0
 26 27  1  0  0  0  0
  6 23  2  0  0  0  0
  2 23  1  0  0  0  0
  5  6  1  0  0  0  0
 25 26  1  0  0  0  0
  5 24  1  0  0  0  0
  2 25  1  0  0  0  0
  2  3  2  0  0  0  0
  4  5  2  0  0  0  0
  3  4  1  0  0  0  0
  3 28  1  0  0  0  0
  4 29  1  0  0  0  0
  6 30  1  0  0  0  0
  8 31  1  0  0  0  0
  9 32  1  0  0  0  0
 12 33  1  0  0  0  0
 13 34  1  0  0  0  0
 16 35  1  0  0  0  0
 18 36  1  0  0  0  0
 22 37  1  0  0  0  0
 22 38  1  0  0  0  0
 22 39  1  0  0  0  0
 26 40  1  0  0  0  0
 26 41  1  0  0  0  0
 27 42  1  0  0  0  0
 27 43  1  0  0  0  0
M  END
> <OPENEYE_ISO_SMILES>
CO[C@]1(CCOc2c1cc(cc2)Cl)C(=O)Nc3cncc4c3cc(cc4)F

> <OPENEYE_INCHI>
InChI=1S/C20H16ClFN2O3/c1-26-20(6-7-27-18-5-3-13(21)8-16(18)20)19(25)24-17-11-23-10-12-2-4-14(22)9-15(12)17/h2-5,8-11H,6-7H2,1H3,(H,24,25)/t20-/m0/s1

> <OPENEYE_INCHIKEY>
PAPXBUNGDDTTOJ-FQEVSTJZSA-N

> <FORMULA>
C20H16ClFN2O3

$$$$
