R0F
  -OEChem-05102419333D

 50 53  0     1  0  0  0  0  0999 V2000
    2.8100    0.4440    0.8540 N   0  0  2  0  0  0  0  0  0  0  0  0
   -2.4770    3.0950   -1.3490 N   0  0  0  0  0  0  0  0  0  0  0  0
    0.7100   -0.5290    1.6110 C   0  0  1  0  0  0  0  0  0  0  0  0
   -0.1570    0.4940    0.9240 C   0  0  0  0  0  0  0  0  0  0  0  0
   -2.2110    1.1100   -0.1000 C   0  0  0  0  0  0  0  0  0  0  0  0
   -1.6940    2.1680   -0.8170 C   0  0  0  0  0  0  0  0  0  0  0  0
   -3.7840    3.0740   -1.2350 C   0  0  0  0  0  0  0  0  0  0  0  0
   -5.8100    1.9800   -0.3790 C   0  0  0  0  0  0  0  0  0  0  0  0
   -4.2210   -0.0140    0.7730 C   0  0  0  0  0  0  0  0  0  0  0  0
    1.0020   -1.6600    0.6580 C   0  0  0  0  0  0  0  0  0  0  0  0
    0.2340   -3.6490   -0.4460 C   0  0  0  0  0  0  0  0  0  0  0  0
    2.2200   -1.7750    0.0230 C   0  0  0  0  0  0  0  0  0  0  0  0
    3.3330   -0.7870    0.2540 C   0  0  0  0  0  0  0  0  0  0  0  0
   -1.0120   -4.8230   -0.7330 Cl  0  0  0  0  0  0  0  0  0  0  0  0
    0.0090   -2.5990    0.4240 C   0  0  0  0  0  0  0  0  0  0  0  0
    1.4550   -3.7630   -1.0860 C   0  0  0  0  0  0  0  0  0  0  0  0
    2.4430   -2.8280   -0.8520 C   0  0  0  0  0  0  0  0  0  0  0  0
    3.8990    1.3780    1.1730 C   0  0  0  0  0  0  0  0  0  0  0  0
    4.5470    1.8480   -0.1040 C   0  0  0  0  0  0  0  0  0  0  0  0
    4.1420    1.4460   -1.1730 O   0  0  0  0  0  0  0  0  0  0  0  0
    5.5770    2.7170   -0.0560 N   0  0  0  0  0  0  0  0  0  0  0  0
    6.2070    3.1740   -1.2970 C   0  0  0  0  0  0  0  0  0  0  0  0
    2.0170    0.1300    2.0530 C   0  0  0  0  0  0  0  0  0  0  0  0
    0.2370    1.6340    0.7940 O   0  0  0  0  0  0  0  0  0  0  0  0
   -1.3700    0.1420    0.4540 N   0  0  0  0  0  0  0  0  0  0  0  0
   -3.6120    1.0270    0.0610 C   0  0  0  0  0  0  0  0  0  0  0  0
   -5.5780   -0.0400    0.8940 C   0  0  0  0  0  0  0  0  0  0  0  0
   -6.3690    0.9540    0.3200 C   0  0  0  0  0  0  0  0  0  0  0  0
   -4.4150    2.0400   -0.5250 C   0  0  0  0  0  0  0  0  0  0  0  0
    0.1880   -0.9180    2.4850 H   0  0  0  0  0  0  0  0  0  0  0  0
   -0.6240    2.2440   -0.9480 H   0  0  0  0  0  0  0  0  0  0  0  0
   -4.3770    3.8550   -1.6880 H   0  0  0  0  0  0  0  0  0  0  0  0
   -6.4360    2.7430   -0.8190 H   0  0  0  0  0  0  0  0  0  0  0  0
   -3.6200   -0.7900    1.2230 H   0  0  0  0  0  0  0  0  0  0  0  0
    3.8070   -0.5500   -0.6990 H   0  0  0  0  0  0  0  0  0  0  0  0
    4.0720   -1.2280    0.9230 H   0  0  0  0  0  0  0  0  0  0  0  0
   -0.9440   -2.5100    0.9240 H   0  0  0  0  0  0  0  0  0  0  0  0
    1.6340   -4.5810   -1.7680 H   0  0  0  0  0  0  0  0  0  0  0  0
    3.3960   -2.9170   -1.3530 H   0  0  0  0  0  0  0  0  0  0  0  0
    3.4970    2.2350    1.7130 H   0  0  0  0  0  0  0  0  0  0  0  0
    4.6410    0.8730    1.7930 H   0  0  0  0  0  0  0  0  0  0  0  0
    5.9010    3.0390    0.8000 H   0  0  0  0  0  0  0  0  0  0  0  0
    5.4660    3.6790   -1.9160 H   0  0  0  0  0  0  0  0  0  0  0  0
    7.0150    3.8670   -1.0600 H   0  0  0  0  0  0  0  0  0  0  0  0
    6.6100    2.3170   -1.8370 H   0  0  0  0  0  0  0  0  0  0  0  0
    2.5750   -0.5540    2.6920 H   0  0  0  0  0  0  0  0  0  0  0  0
    1.7980    1.0480    2.5980 H   0  0  0  0  0  0  0  0  0  0  0  0
   -1.6590   -0.7820    0.5000 H   0  0  0  0  0  0  0  0  0  0  0  0
   -6.0480   -0.8420    1.4430 H   0  0  0  0  0  0  0  0  0  0  0  0
   -7.4420    0.9090    0.4310 H   0  0  0  0  0  0  0  0  0  0  0  0
  8 28  2  0  0  0  0
  8 29  1  0  0  0  0
  7 29  2  0  0  0  0
  2  7  1  0  0  0  0
 27 28  1  0  0  0  0
 26 29  1  0  0  0  0
  2  6  2  0  0  0  0
  9 27  2  0  0  0  0
  9 26  1  0  0  0  0
  5 26  2  0  0  0  0
  5  6  1  0  0  0  0
  5 25  1  0  0  0  0
  4 25  1  0  0  0  0
  3  4  1  0  0  0  0
  4 24  2  0  0  0  0
  3 23  1  0  0  0  0
  1 23  1  0  0  0  0
  3 10  1  0  0  0  0
  1 18  1  0  0  0  0
 18 19  1  0  0  0  0
  1 13  1  0  0  0  0
 19 21  1  0  0  0  0
 19 20  2  0  0  0  0
 21 22  1  0  0  0  0
 10 15  2  0  0  0  0
 10 12  1  0  0  0  0
 11 15  1  0  0  0  0
 12 13  1  0  0  0  0
 12 17  2  0  0  0  0
 11 14  1  0  0  0  0
 11 16  2  0  0  0  0
 16 17  1  0  0  0  0
  3 30  1  0  0  0  0
  6 31  1  0  0  0  0
  7 32  1  0  0  0  0
  8 33  1  0  0  0  0
  9 34  1  0  0  0  0
 13 35  1  0  0  0  0
 13 36  1  0  0  0  0
 15 37  1  0  0  0  0
 16 38  1  0  0  0  0
 17 39  1  0  0  0  0
 18 40  1  0  0  0  0
 18 41  1  0  0  0  0
 21 42  1  0  0  0  0
 22 43  1  0  0  0  0
 22 44  1  0  0  0  0
 22 45  1  0  0  0  0
 23 46  1  0  0  0  0
 23 47  1  0  0  0  0
 25 48  1  0  0  0  0
 27 49  1  0  0  0  0
 28 50  1  0  0  0  0
M  END
> <OPENEYE_ISO_SMILES>
CNC(=O)C[N@]1Cc2ccc(cc2[C@@H](C1)C(=O)Nc3cncc4c3cccc4)Cl

> <OPENEYE_INCHI>
InChI=1S/C22H21ClN4O2/c1-24-21(28)13-27-11-15-6-7-16(23)8-18(15)19(12-27)22(29)26-20-10-25-9-14-4-2-3-5-17(14)20/h2-10,19H,11-13H2,1H3,(H,24,28)(H,26,29)/t19-/m1/s1

> <OPENEYE_INCHIKEY>
BNHZFFZRNBJNJB-LJQANCHMSA-N

> <FORMULA>
C22H21ClN4O2

$$$$
