R1U
  -OEChem-05102419333D

 34 36  0     0  0  0  0  0  0999 V2000
    5.1110    1.5750    0.2520 N   0  0  0  0  0  0  0  0  0  0  0  0
    1.1570    0.0940   -1.0540 N   0  0  0  0  0  0  0  0  0  0  0  0
    2.0160   -1.7810    0.2060 C   0  0  0  0  0  0  0  0  0  0  0  0
    2.1680   -0.4990   -0.2880 C   0  0  0  0  0  0  0  0  0  0  0  0
   -0.1370   -0.1690   -0.7830 C   0  0  0  0  0  0  0  0  0  0  0  0
   -1.2260    0.5460   -1.5410 C   0  0  0  0  0  0  0  0  0  0  0  0
   -2.5710    0.0750   -1.0510 C   0  0  0  0  0  0  0  0  0  0  0  0
   -4.4180   -1.4410   -1.2020 C   0  0  0  0  0  0  0  0  0  0  0  0
   -3.1910    0.7280   -0.0020 C   0  0  0  0  0  0  0  0  0  0  0  0
   -5.2060    1.1140    1.7640 Cl  0  0  0  0  0  0  0  0  0  0  0  0
   -4.4260    0.2950    0.4470 C   0  0  0  0  0  0  0  0  0  0  0  0
   -5.0400   -0.7890   -0.1530 C   0  0  0  0  0  0  0  0  0  0  0  0
   -3.1870   -1.0050   -1.6550 C   0  0  0  0  0  0  0  0  0  0  0  0
   -0.4250   -0.9810    0.0710 O   0  0  0  0  0  0  0  0  0  0  0  0
    2.9610   -2.3560    0.9330 N   0  0  0  0  0  0  0  0  0  0  0  0
    4.0920   -1.7510    1.2250 C   0  0  0  0  0  0  0  0  0  0  0  0
    3.3510    0.1940   -0.0080 C   0  0  0  0  0  0  0  0  0  0  0  0
    3.8400    1.4310   -0.3160 N   0  0  0  0  0  0  0  0  0  0  0  0
    3.1450    2.4460   -1.1120 C   0  0  0  0  0  0  0  0  0  0  0  0
    4.3350   -0.4530    0.7680 C   0  0  0  0  0  0  0  0  0  0  0  0
    5.4380    0.4910    0.8960 C   0  0  0  0  0  0  0  0  0  0  0  0
    1.3880    0.6940   -1.7810 H   0  0  0  0  0  0  0  0  0  0  0  0
    1.1060   -2.3250   -0.0030 H   0  0  0  0  0  0  0  0  0  0  0  0
   -1.1360    1.6200   -1.3790 H   0  0  0  0  0  0  0  0  0  0  0  0
   -1.1300    0.3300   -2.6050 H   0  0  0  0  0  0  0  0  0  0  0  0
   -4.8970   -2.2870   -1.6720 H   0  0  0  0  0  0  0  0  0  0  0  0
   -2.7110    1.5740    0.4670 H   0  0  0  0  0  0  0  0  0  0  0  0
   -6.0020   -1.1290    0.2000 H   0  0  0  0  0  0  0  0  0  0  0  0
   -2.7040   -1.5120   -2.4770 H   0  0  0  0  0  0  0  0  0  0  0  0
    4.8350   -2.2590    1.8210 H   0  0  0  0  0  0  0  0  0  0  0  0
    3.3240    2.2620   -2.1710 H   0  0  0  0  0  0  0  0  0  0  0  0
    2.0750    2.3950   -0.9100 H   0  0  0  0  0  0  0  0  0  0  0  0
    3.5180    3.4350   -0.8460 H   0  0  0  0  0  0  0  0  0  0  0  0
    6.3620    0.3220    1.4300 H   0  0  0  0  0  0  0  0  0  0  0  0
 20 21  1  0  0  0  0
  1 21  2  0  0  0  0
 16 20  2  0  0  0  0
 15 16  1  0  0  0  0
 17 20  1  0  0  0  0
  1 18  1  0  0  0  0
  3 15  2  0  0  0  0
 17 18  1  0  0  0  0
  4 17  2  0  0  0  0
 18 19  1  0  0  0  0
  3  4  1  0  0  0  0
  2  4  1  0  0  0  0
  2  5  1  0  0  0  0
  5  6  1  0  0  0  0
  5 14  2  0  0  0  0
  6  7  1  0  0  0  0
  7  9  2  0  0  0  0
  7 13  1  0  0  0  0
  9 11  1  0  0  0  0
  8 13  2  0  0  0  0
 10 11  1  0  0  0  0
 11 12  2  0  0  0  0
  8 12  1  0  0  0  0
  2 22  1  0  0  0  0
  3 23  1  0  0  0  0
  6 24  1  0  0  0  0
  6 25  1  0  0  0  0
  8 26  1  0  0  0  0
  9 27  1  0  0  0  0
 12 28  1  0  0  0  0
 13 29  1  0  0  0  0
 16 30  1  0  0  0  0
 19 31  1  0  0  0  0
 19 32  1  0  0  0  0
 19 33  1  0  0  0  0
 21 34  1  0  0  0  0
M  END
> <OPENEYE_ISO_SMILES>
Cn1c2c(cncc2NC(=O)Cc3cccc(c3)Cl)cn1

> <OPENEYE_INCHI>
InChI=1S/C15H13ClN4O/c1-20-15-11(8-18-20)7-17-9-13(15)19-14(21)6-10-3-2-4-12(16)5-10/h2-5,7-9H,6H2,1H3,(H,19,21)

> <OPENEYE_INCHIKEY>
YMBXBLIFBSFTRM-UHFFFAOYSA-N

> <FORMULA>
C15H13ClN4O

$$$$
