R2X
  -OEChem-05102419333D

 63 67  0     1  0  0  0  0  0999 V2000
    7.3440    0.5620    0.4040 N   0  0  0  0  0  0  0  0  0  0  0  0
   -5.5280    2.7360   -1.7840 N   0  0  0  0  0  0  0  0  0  0  0  0
   -1.0090   -1.3470   -0.4920 C   0  0  0  0  0  0  0  0  0  0  0  0
   -1.4800   -2.4560    0.1840 C   0  0  0  0  0  0  0  0  0  0  0  0
   -0.9840   -0.0030    0.1910 C   0  0  2  0  0  0  0  0  0  0  0  0
    1.3820    0.4720    0.5300 C   0  0  0  0  0  0  0  0  0  0  0  0
    2.6510    1.1980    0.1640 C   0  0  1  0  0  0  0  0  0  0  0  0
    4.6610    0.7400   -1.1330 C   0  0  0  0  0  0  0  0  0  0  0  0
    8.5620   -0.1340    0.8450 C   0  0  0  0  0  0  0  0  0  0  0  0
    9.2060    1.8450   -0.3890 C   0  0  0  0  0  0  0  0  0  0  0  0
   -2.1730    0.8090   -0.2540 C   0  0  0  0  0  0  0  0  0  0  0  0
   -6.6440    2.7530   -1.0940 C   0  0  0  0  0  0  0  0  0  0  0  0
   -6.7820    1.9440    0.0460 C   0  0  0  0  0  0  0  0  0  0  0  0
   -7.9580    1.9330    0.8120 C   0  0  0  0  0  0  0  0  0  0  0  0
   -6.9690    0.3170    2.2830 C   0  0  0  0  0  0  0  0  0  0  0  0
   -5.6950    1.1170    0.4290 C   0  0  0  0  0  0  0  0  0  0  0  0
   -2.0060    1.8720   -0.8130 O   0  0  0  0  0  0  0  0  0  0  0  0
   -3.4220    0.3530   -0.0300 N   0  0  0  0  0  0  0  0  0  0  0  0
   -4.5230    1.1460   -0.3580 C   0  0  0  0  0  0  0  0  0  0  0  0
   -5.8120    0.3020    1.5630 C   0  0  0  0  0  0  0  0  0  0  0  0
   -8.0370    1.1290    1.9090 C   0  0  0  0  0  0  0  0  0  0  0  0
   -4.4930    1.9770   -1.4590 C   0  0  0  0  0  0  0  0  0  0  0  0
   -0.5560   -1.4690   -1.7920 C   0  0  0  0  0  0  0  0  0  0  0  0
   -0.5750   -2.7020   -2.4180 C   0  0  0  0  0  0  0  0  0  0  0  0
   -1.0450   -3.8130   -1.7420 C   0  0  0  0  0  0  0  0  0  0  0  0
   -1.4970   -3.6910   -0.4410 C   0  0  0  0  0  0  0  0  0  0  0  0
   -2.0880   -5.0850    0.4080 Cl  0  0  0  0  0  0  0  0  0  0  0  0
    0.2500    0.7020   -0.1650 N   0  0  0  0  0  0  0  0  0  0  0  0
    1.3790   -0.3190    1.4490 O   0  0  0  0  0  0  0  0  0  0  0  0
    3.7270    0.8030    1.0430 O   0  0  0  0  0  0  0  0  0  0  0  0
    4.9400    1.1380    0.3330 C   0  0  1  0  0  0  0  0  0  0  0  0
    3.1210    0.7810   -1.2470 C   0  0  0  0  0  0  0  0  0  0  0  0
    6.1010    0.3490    0.8790 C   0  0  0  0  0  0  0  0  0  0  0  0
    5.9180   -0.4790    1.7470 O   0  0  0  0  0  0  0  0  0  0  0  0
    7.7090    1.5380   -0.6400 C   0  0  0  0  0  0  0  0  0  0  0  0
    9.7420    0.4570    0.0450 C   0  0  0  0  0  0  0  0  0  0  0  0
   -1.8330   -2.3600    1.2000 H   0  0  0  0  0  0  0  0  0  0  0  0
   -1.0230   -0.1440    1.2710 H   0  0  0  0  0  0  0  0  0  0  0  0
    2.4970    2.2760    0.2090 H   0  0  0  0  0  0  0  0  0  0  0  0
    5.1140    1.4590   -1.8160 H   0  0  0  0  0  0  0  0  0  0  0  0
    5.0350   -0.2640   -1.3350 H   0  0  0  0  0  0  0  0  0  0  0  0
    8.7170    0.0310    1.9110 H   0  0  0  0  0  0  0  0  0  0  0  0
    8.4730   -1.2010    0.6410 H   0  0  0  0  0  0  0  0  0  0  0  0
    9.6930    2.1830   -1.3040 H   0  0  0  0  0  0  0  0  0  0  0  0
    9.3270    2.5780    0.4080 H   0  0  0  0  0  0  0  0  0  0  0  0
   -7.4590    3.3910   -1.4030 H   0  0  0  0  0  0  0  0  0  0  0  0
   -8.7940    2.5580    0.5350 H   0  0  0  0  0  0  0  0  0  0  0  0
   -7.0590   -0.3120    3.1570 H   0  0  0  0  0  0  0  0  0  0  0  0
   -3.5550   -0.5250    0.3590 H   0  0  0  0  0  0  0  0  0  0  0  0
   -4.9910   -0.3320    1.8640 H   0  0  0  0  0  0  0  0  0  0  0  0
   -8.9420    1.1210    2.4980 H   0  0  0  0  0  0  0  0  0  0  0  0
   -3.6020    2.0100   -2.0690 H   0  0  0  0  0  0  0  0  0  0  0  0
   -0.1890   -0.6020   -2.3200 H   0  0  0  0  0  0  0  0  0  0  0  0
   -0.2210   -2.7970   -3.4340 H   0  0  0  0  0  0  0  0  0  0  0  0
   -1.0590   -4.7760   -2.2310 H   0  0  0  0  0  0  0  0  0  0  0  0
    0.2520    1.3350   -0.9000 H   0  0  0  0  0  0  0  0  0  0  0  0
    5.1400    2.2070    0.4070 H   0  0  0  0  0  0  0  0  0  0  0  0
    2.7310   -0.2040   -1.5040 H   0  0  0  0  0  0  0  0  0  0  0  0
    2.8120    1.5200   -1.9870 H   0  0  0  0  0  0  0  0  0  0  0  0
    7.5710    1.1030   -1.6300 H   0  0  0  0  0  0  0  0  0  0  0  0
    7.1130    2.4440   -0.5370 H   0  0  0  0  0  0  0  0  0  0  0  0
   10.6210    0.5670    0.6800 H   0  0  0  0  0  0  0  0  0  0  0  0
    9.9680   -0.1610   -0.8230 H   0  0  0  0  0  0  0  0  0  0  0  0
 14 21  2  0  0  0  0
 13 14  1  0  0  0  0
 15 21  1  0  0  0  0
 12 13  2  0  0  0  0
  2 12  1  0  0  0  0
 13 16  1  0  0  0  0
 15 20  2  0  0  0  0
  2 22  2  0  0  0  0
 16 20  1  0  0  0  0
 16 19  2  0  0  0  0
 30 31  1  0  0  0  0
  7 30  1  0  0  0  0
 19 22  1  0  0  0  0
 18 19  1  0  0  0  0
  1 35  1  0  0  0  0
 10 35  1  0  0  0  0
 31 33  1  0  0  0  0
  8 31  1  0  0  0  0
  1 33  1  0  0  0  0
  1  9  1  0  0  0  0
 33 34  2  0  0  0  0
 11 18  1  0  0  0  0
  6  7  1  0  0  0  0
  7 32  1  0  0  0  0
  9 36  1  0  0  0  0
 10 36  1  0  0  0  0
  6 28  1  0  0  0  0
  5 28  1  0  0  0  0
  6 29  2  0  0  0  0
  8 32  1  0  0  0  0
  5 11  1  0  0  0  0
 11 17  2  0  0  0  0
  3  5  1  0  0  0  0
  3  4  2  0  0  0  0
  3 23  1  0  0  0  0
  4 26  1  0  0  0  0
 23 24  2  0  0  0  0
 26 27  1  0  0  0  0
 25 26  2  0  0  0  0
 24 25  1  0  0  0  0
  4 37  1  0  0  0  0
  5 38  1  0  0  0  0
  7 39  1  0  0  0  0
  8 40  1  0  0  0  0
  8 41  1  0  0  0  0
  9 42  1  0  0  0  0
  9 43  1  0  0  0  0
 10 44  1  0  0  0  0
 10 45  1  0  0  0  0
 12 46  1  0  0  0  0
 14 47  1  0  0  0  0
 15 48  1  0  0  0  0
 18 49  1  0  0  0  0
 20 50  1  0  0  0  0
 21 51  1  0  0  0  0
 22 52  1  0  0  0  0
 23 53  1  0  0  0  0
 24 54  1  0  0  0  0
 25 55  1  0  0  0  0
 28 56  1  0  0  0  0
 31 57  1  0  0  0  0
 32 58  1  0  0  0  0
 32 59  1  0  0  0  0
 35 60  1  0  0  0  0
 35 61  1  0  0  0  0
 36 62  1  0  0  0  0
 36 63  1  0  0  0  0
M  END
> <OPENEYE_ISO_SMILES>
c1ccc2c(c1)cncc2NC(=O)[C@@H](c3cccc(c3)Cl)NC(=O)[C@@H]4CC[C@@H](O4)C(=O)N5CCCC5

> <OPENEYE_INCHI>
InChI=1S/C27H27ClN4O4/c28-19-8-5-7-17(14-19)24(26(34)30-21-16-29-15-18-6-1-2-9-20(18)21)31-25(33)22-10-11-23(36-22)27(35)32-12-3-4-13-32/h1-2,5-9,14-16,22-24H,3-4,10-13H2,(H,30,34)(H,31,33)/t22-,23+,24+/m0/s1

> <OPENEYE_INCHIKEY>
RZBYEPRBZPLACH-RBZQAINGSA-N

> <FORMULA>
C27H27ClN4O4

$$$$
