R66
  -OEChem-05102419333D

 39 42  0     1  0  0  0  0  0999 V2000
    3.7170   -2.5080    0.2640 N   0  0  0  0  0  0  0  0  0  0  0  0
    2.3070   -0.6990   -0.2900 C   0  0  0  0  0  0  0  0  0  0  0  0
    2.5510   -2.0500   -0.1660 C   0  0  0  0  0  0  0  0  0  0  0  0
    4.7120   -1.7200    0.5980 C   0  0  0  0  0  0  0  0  0  0  0  0
    4.5700   -0.3260    0.5090 C   0  0  0  0  0  0  0  0  0  0  0  0
    5.6100    0.5510    0.8570 C   0  0  0  0  0  0  0  0  0  0  0  0
    4.2040    2.4150    0.3030 C   0  0  0  0  0  0  0  0  0  0  0  0
   -2.4190   -0.1550   -0.3150 C   0  0  0  0  0  0  0  0  0  0  0  0
   -3.6260   -2.1440    0.2520 C   0  0  0  0  0  0  0  0  0  0  0  0
   -4.6990   -0.0080    0.4030 C   0  0  0  0  0  0  0  0  0  0  0  0
   -6.1030    0.9470    0.7670 Cl  0  0  0  0  0  0  0  0  0  0  0  0
   -4.7440   -1.3840    0.5420 C   0  0  0  0  0  0  0  0  0  0  0  0
   -2.4640   -1.5300   -0.1760 C   0  0  0  0  0  0  0  0  0  0  0  0
   -3.5360    0.6060   -0.0250 C   0  0  0  0  0  0  0  0  0  0  0  0
   -1.1500    0.5140   -0.7760 C   0  0  1  0  0  0  0  0  0  0  0  0
   -1.2810    1.9360   -0.7020 O   0  0  0  0  0  0  0  0  0  0  0  0
    0.0260    0.0470    0.0530 C   0  0  0  0  0  0  0  0  0  0  0  0
    0.0260   -0.0600    1.2610 O   0  0  0  0  0  0  0  0  0  0  0  0
    1.0710   -0.2350   -0.7450 N   0  0  0  0  0  0  0  0  0  0  0  0
    0.7450    0.0090   -2.1550 C   0  0  0  0  0  0  0  0  0  0  0  0
   -0.8010    0.0770   -2.2170 C   0  0  0  0  0  0  0  0  0  0  0  0
    3.3360    0.2050    0.0530 C   0  0  0  0  0  0  0  0  0  0  0  0
    3.1740    1.5930   -0.0430 C   0  0  0  0  0  0  0  0  0  0  0  0
    5.4170    1.8950    0.7500 C   0  0  0  0  0  0  0  0  0  0  0  0
    1.7730   -2.7530   -0.4260 H   0  0  0  0  0  0  0  0  0  0  0  0
    5.6430   -2.1460    0.9430 H   0  0  0  0  0  0  0  0  0  0  0  0
    6.5550    0.1630    1.2060 H   0  0  0  0  0  0  0  0  0  0  0  0
    4.0790    3.4850    0.2290 H   0  0  0  0  0  0  0  0  0  0  0  0
   -3.6610   -3.2180    0.3600 H   0  0  0  0  0  0  0  0  0  0  0  0
   -5.6520   -1.8640    0.8760 H   0  0  0  0  0  0  0  0  0  0  0  0
   -1.5920   -2.1240   -0.4030 H   0  0  0  0  0  0  0  0  0  0  0  0
   -3.5000    1.6800   -0.1330 H   0  0  0  0  0  0  0  0  0  0  0  0
   -1.4720    2.2670    0.1860 H   0  0  0  0  0  0  0  0  0  0  0  0
    1.1780    0.9530   -2.4850 H   0  0  0  0  0  0  0  0  0  0  0  0
    1.1100   -0.8120   -2.7740 H   0  0  0  0  0  0  0  0  0  0  0  0
   -1.2260   -0.9000   -2.4440 H   0  0  0  0  0  0  0  0  0  0  0  0
   -1.1290    0.8220   -2.9420 H   0  0  0  0  0  0  0  0  0  0  0  0
    2.2390    2.0090   -0.3890 H   0  0  0  0  0  0  0  0  0  0  0  0
    6.2180    2.5690    1.0180 H   0  0  0  0  0  0  0  0  0  0  0  0
  6 24  2  0  0  0  0
  5  6  1  0  0  0  0
  4  5  2  0  0  0  0
  1  4  1  0  0  0  0
  7 24  1  0  0  0  0
  5 22  1  0  0  0  0
  1  3  2  0  0  0  0
  2  3  1  0  0  0  0
  7 23  2  0  0  0  0
 22 23  1  0  0  0  0
  2 22  2  0  0  0  0
 19 20  1  0  0  0  0
 20 21  1  0  0  0  0
  2 19  1  0  0  0  0
 17 19  1  0  0  0  0
 15 21  1  0  0  0  0
 15 17  1  0  0  0  0
 17 18  2  0  0  0  0
 15 16  1  0  0  0  0
  8 15  1  0  0  0  0
  8 14  2  0  0  0  0
  8 13  1  0  0  0  0
 10 14  1  0  0  0  0
  9 13  2  0  0  0  0
 10 11  1  0  0  0  0
 10 12  2  0  0  0  0
  9 12  1  0  0  0  0
  3 25  1  0  0  0  0
  4 26  1  0  0  0  0
  6 27  1  0  0  0  0
  7 28  1  0  0  0  0
  9 29  1  0  0  0  0
 12 30  1  0  0  0  0
 13 31  1  0  0  0  0
 14 32  1  0  0  0  0
 16 33  1  0  0  0  0
 20 34  1  0  0  0  0
 20 35  1  0  0  0  0
 21 36  1  0  0  0  0
 21 37  1  0  0  0  0
 23 38  1  0  0  0  0
 24 39  1  0  0  0  0
M  END
> <OPENEYE_ISO_SMILES>
c1ccc2c(c1)cncc2N3CC[C@](C3=O)(c4cccc(c4)Cl)O

> <OPENEYE_INCHI>
InChI=1S/C19H15ClN2O2/c20-15-6-3-5-14(10-15)19(24)8-9-22(18(19)23)17-12-21-11-13-4-1-2-7-16(13)17/h1-7,10-12,24H,8-9H2/t19-/m1/s1

> <OPENEYE_INCHIKEY>
YJEUVMCEEMSKGZ-LJQANCHMSA-N

> <FORMULA>
C19H15ClN2O2

$$$$
