R76
  -OEChem-05102419333D

 49 52  0     1  0  0  0  0  0999 V2000
    2.6370    0.6800    0.1080 N   0  0  0  0  0  0  0  0  0  0  0  0
   -2.9430    2.7710   -1.6790 N   0  0  0  0  0  0  0  0  0  0  0  0
    0.7090   -0.2860    1.2970 C   0  0  1  0  0  0  0  0  0  0  0  0
   -0.3050    0.6500    0.6920 C   0  0  0  0  0  0  0  0  0  0  0  0
   -2.5090    1.0870   -0.0840 C   0  0  0  0  0  0  0  0  0  0  0  0
   -2.0880    1.9870   -1.0390 C   0  0  0  0  0  0  0  0  0  0  0  0
   -4.2360    2.7490   -1.4540 C   0  0  0  0  0  0  0  0  0  0  0  0
   -6.1480    1.8130   -0.2290 C   0  0  0  0  0  0  0  0  0  0  0  0
   -4.4030    0.1250    1.1630 C   0  0  0  0  0  0  0  0  0  0  0  0
    0.8560   -1.4990    0.4170 C   0  0  0  0  0  0  0  0  0  0  0  0
    0.2700   -3.7420   -0.1720 C   0  0  0  0  0  0  0  0  0  0  0  0
    1.7590   -1.4630   -0.6520 C   0  0  0  0  0  0  0  0  0  0  0  0
    2.5310   -0.2240   -0.8870 C   0  0  0  0  0  0  0  0  0  0  0  0
    3.0620   -0.0240   -1.9610 O   0  0  0  0  0  0  0  0  0  0  0  0
    3.3490    1.9370   -0.1370 C   0  0  0  0  0  0  0  0  0  0  0  0
    4.7800    1.8000    0.3150 C   0  0  0  0  0  0  0  0  0  0  0  0
    5.1920    0.7290    0.7090 O   0  0  0  0  0  0  0  0  0  0  0  0
    5.6030    2.8670    0.2810 N   0  0  0  0  0  0  0  0  0  0  0  0
    6.9950    2.7330    0.7200 C   0  0  0  0  0  0  0  0  0  0  0  0
    1.9080   -2.5750   -1.4770 C   0  0  0  0  0  0  0  0  0  0  0  0
    1.1610   -3.7100   -1.2320 C   0  0  0  0  0  0  0  0  0  0  0  0
   -0.6630   -5.1750    0.1280 Cl  0  0  0  0  0  0  0  0  0  0  0  0
    0.1220   -2.6390    0.6550 C   0  0  0  0  0  0  0  0  0  0  0  0
    2.0510    0.4320    1.4220 C   0  0  0  0  0  0  0  0  0  0  0  0
    0.0370    1.7480    0.3060 O   0  0  0  0  0  0  0  0  0  0  0  0
   -1.5930    0.2680    0.5800 N   0  0  0  0  0  0  0  0  0  0  0  0
   -3.8890    1.0120    0.2080 C   0  0  0  0  0  0  0  0  0  0  0  0
   -5.7450    0.0980    1.4000 C   0  0  0  0  0  0  0  0  0  0  0  0
   -6.6130    0.9390    0.7070 C   0  0  0  0  0  0  0  0  0  0  0  0
   -4.7710    1.8680   -0.5000 C   0  0  0  0  0  0  0  0  0  0  0  0
    0.3700   -0.5950    2.2860 H   0  0  0  0  0  0  0  0  0  0  0  0
   -1.0350    2.0550   -1.2720 H   0  0  0  0  0  0  0  0  0  0  0  0
   -4.8900    3.4100   -2.0030 H   0  0  0  0  0  0  0  0  0  0  0  0
   -6.8330    2.4580   -0.7580 H   0  0  0  0  0  0  0  0  0  0  0  0
   -3.7410   -0.5320    1.7070 H   0  0  0  0  0  0  0  0  0  0  0  0
    3.3250    2.1670   -1.2020 H   0  0  0  0  0  0  0  0  0  0  0  0
    2.8680    2.7410    0.4200 H   0  0  0  0  0  0  0  0  0  0  0  0
    5.2740    3.7230   -0.0340 H   0  0  0  0  0  0  0  0  0  0  0  0
    7.0180    2.4160    1.7630 H   0  0  0  0  0  0  0  0  0  0  0  0
    7.5010    1.9900    0.1030 H   0  0  0  0  0  0  0  0  0  0  0  0
    7.5010    3.6930    0.6210 H   0  0  0  0  0  0  0  0  0  0  0  0
    2.6030   -2.5490   -2.3030 H   0  0  0  0  0  0  0  0  0  0  0  0
    1.2700   -4.5740   -1.8700 H   0  0  0  0  0  0  0  0  0  0  0  0
   -0.5720   -2.6730    1.4820 H   0  0  0  0  0  0  0  0  0  0  0  0
    2.7330   -0.1840    2.0070 H   0  0  0  0  0  0  0  0  0  0  0  0
    1.9010    1.3830    1.9320 H   0  0  0  0  0  0  0  0  0  0  0  0
   -1.8830   -0.5750    0.9610 H   0  0  0  0  0  0  0  0  0  0  0  0
   -6.1410   -0.5850    2.1360 H   0  0  0  0  0  0  0  0  0  0  0  0
   -7.6720    0.8980    0.9140 H   0  0  0  0  0  0  0  0  0  0  0  0
  8 29  2  0  0  0  0
  8 30  1  0  0  0  0
 28 29  1  0  0  0  0
  7 30  2  0  0  0  0
  2  7  1  0  0  0  0
 27 30  1  0  0  0  0
  2  6  2  0  0  0  0
  9 28  2  0  0  0  0
  9 27  1  0  0  0  0
  5 27  2  0  0  0  0
  5  6  1  0  0  0  0
  5 26  1  0  0  0  0
  4 26  1  0  0  0  0
  3  4  1  0  0  0  0
  4 25  2  0  0  0  0
  3 24  1  0  0  0  0
  3 10  1  0  0  0  0
  1 24  1  0  0  0  0
 16 17  2  0  0  0  0
 18 19  1  0  0  0  0
 16 18  1  0  0  0  0
 15 16  1  0  0  0  0
  1 15  1  0  0  0  0
  1 13  1  0  0  0  0
 10 23  2  0  0  0  0
 10 12  1  0  0  0  0
 11 23  1  0  0  0  0
 12 13  1  0  0  0  0
 12 20  2  0  0  0  0
 13 14  2  0  0  0  0
 11 22  1  0  0  0  0
 11 21  2  0  0  0  0
 20 21  1  0  0  0  0
  3 31  1  0  0  0  0
  6 32  1  0  0  0  0
  7 33  1  0  0  0  0
  8 34  1  0  0  0  0
  9 35  1  0  0  0  0
 15 36  1  0  0  0  0
 15 37  1  0  0  0  0
 18 38  1  0  0  0  0
 19 39  1  0  0  0  0
 19 40  1  0  0  0  0
 19 41  1  0  0  0  0
 20 42  1  0  0  0  0
 21 43  1  0  0  0  0
 23 44  1  0  0  0  0
 24 45  1  0  0  0  0
 24 46  1  0  0  0  0
 26 47  1  0  0  0  0
 28 48  1  0  0  0  0
 29 49  1  0  0  0  0
M  END
> <OPENEYE_ISO_SMILES>
CNC(=O)CN1C[C@H](c2cc(ccc2C1=O)Cl)C(=O)Nc3cncc4c3cccc4

> <OPENEYE_INCHI>
InChI=1S/C22H19ClN4O3/c1-24-20(28)12-27-11-18(17-8-14(23)6-7-16(17)22(27)30)21(29)26-19-10-25-9-13-4-2-3-5-15(13)19/h2-10,18H,11-12H2,1H3,(H,24,28)(H,26,29)/t18-/m1/s1

> <OPENEYE_INCHIKEY>
JTYFNCRZNYLUFK-GOSISDBHSA-N

> <FORMULA>
C22H19ClN4O3

$$$$
