R9E
  -OEChem-05102419333D

 38 40  0     0  0  0  0  0  0999 V2000
    1.7300    3.0520   -0.3870 N   0  0  0  0  0  0  0  0  0  0  0  0
    1.2290    0.8700    0.3590 C   0  0  0  0  0  0  0  0  0  0  0  0
   -1.0150    0.1540    0.6870 C   0  0  0  0  0  0  0  0  0  0  0  0
   -2.0150   -0.7560    1.3530 C   0  0  0  0  0  0  0  0  0  0  0  0
   -3.4100   -0.3270    0.9780 C   0  0  0  0  0  0  0  0  0  0  0  0
   -4.0800    0.6030    1.7520 C   0  0  0  0  0  0  0  0  0  0  0  0
   -5.9710    0.4600    0.2900 C   0  0  0  0  0  0  0  0  0  0  0  0
    0.8670    2.1760    0.1070 C   0  0  0  0  0  0  0  0  0  0  0  0
    3.4470    1.4420   -0.4490 C   0  0  0  0  0  0  0  0  0  0  0  0
    5.1820   -0.2040   -0.5060 C   0  0  0  0  0  0  0  0  0  0  0  0
    6.4560   -0.5550   -0.7820 F   0  0  0  0  0  0  0  0  0  0  0  0
    4.3000   -1.1590    0.0150 C   0  0  0  0  0  0  0  0  0  0  0  0
    4.7380   -2.4270    0.2350 O   0  0  0  0  0  0  0  0  0  0  0  0
    3.7930   -3.3570    0.7680 C   0  0  0  0  0  0  0  0  0  0  0  0
    4.7730    1.0750   -0.7370 C   0  0  0  0  0  0  0  0  0  0  0  0
    2.5550    0.4730    0.0790 C   0  0  0  0  0  0  0  0  0  0  0  0
    3.0050   -0.8340    0.3060 C   0  0  0  0  0  0  0  0  0  0  0  0
    2.9750    2.7450   -0.6680 C   0  0  0  0  0  0  0  0  0  0  0  0
    0.3050   -0.0400    0.8800 N   0  0  0  0  0  0  0  0  0  0  0  0
   -1.3970    1.0610   -0.0220 O   0  0  0  0  0  0  0  0  0  0  0  0
   -4.0190   -0.8600   -0.1430 C   0  0  0  0  0  0  0  0  0  0  0  0
   -5.3000   -0.4660   -0.4880 C   0  0  0  0  0  0  0  0  0  0  0  0
   -6.0650   -1.1350   -1.8950 Cl  0  0  0  0  0  0  0  0  0  0  0  0
   -5.3590    0.9960    1.4080 C   0  0  0  0  0  0  0  0  0  0  0  0
   -1.8490   -1.7810    1.0230 H   0  0  0  0  0  0  0  0  0  0  0  0
   -1.8960   -0.6970    2.4340 H   0  0  0  0  0  0  0  0  0  0  0  0
   -3.6020    1.0210    2.6250 H   0  0  0  0  0  0  0  0  0  0  0  0
   -6.9710    0.7680    0.0220 H   0  0  0  0  0  0  0  0  0  0  0  0
   -0.1440    2.4930    0.3170 H   0  0  0  0  0  0  0  0  0  0  0  0
    4.2710   -4.3280    0.8950 H   0  0  0  0  0  0  0  0  0  0  0  0
    3.4350   -2.9990    1.7330 H   0  0  0  0  0  0  0  0  0  0  0  0
    2.9520   -3.4530    0.0820 H   0  0  0  0  0  0  0  0  0  0  0  0
    5.4630    1.8020   -1.1390 H   0  0  0  0  0  0  0  0  0  0  0  0
    2.3330   -1.5780    0.7070 H   0  0  0  0  0  0  0  0  0  0  0  0
    3.6370    3.4980   -1.0690 H   0  0  0  0  0  0  0  0  0  0  0  0
    0.6140   -0.8120    1.3800 H   0  0  0  0  0  0  0  0  0  0  0  0
   -3.4940   -1.5830   -0.7500 H   0  0  0  0  0  0  0  0  0  0  0  0
   -5.8810    1.7220    2.0130 H   0  0  0  0  0  0  0  0  0  0  0  0
 10 11  1  0  0  0  0
 10 15  2  0  0  0  0
  9 15  1  0  0  0  0
 10 12  1  0  0  0  0
 13 14  1  0  0  0  0
  9 18  2  0  0  0  0
  1 18  1  0  0  0  0
  9 16  1  0  0  0  0
 12 13  1  0  0  0  0
 12 17  2  0  0  0  0
  1  8  2  0  0  0  0
 16 17  1  0  0  0  0
  2 16  2  0  0  0  0
  2  8  1  0  0  0  0
  2 19  1  0  0  0  0
  3 19  1  0  0  0  0
  3  4  1  0  0  0  0
  3 20  2  0  0  0  0
  4  5  1  0  0  0  0
  5 21  2  0  0  0  0
  5  6  1  0  0  0  0
 21 22  1  0  0  0  0
  6 24  2  0  0  0  0
 22 23  1  0  0  0  0
  7 22  2  0  0  0  0
  7 24  1  0  0  0  0
  4 25  1  0  0  0  0
  4 26  1  0  0  0  0
  6 27  1  0  0  0  0
  7 28  1  0  0  0  0
  8 29  1  0  0  0  0
 14 30  1  0  0  0  0
 14 31  1  0  0  0  0
 14 32  1  0  0  0  0
 15 33  1  0  0  0  0
 17 34  1  0  0  0  0
 18 35  1  0  0  0  0
 19 36  1  0  0  0  0
 21 37  1  0  0  0  0
 24 38  1  0  0  0  0
M  END
> <OPENEYE_ISO_SMILES>
COc1cc2c(cc1F)cncc2NC(=O)Cc3cccc(c3)Cl

> <OPENEYE_INCHI>
InChI=1S/C18H14ClFN2O2/c1-24-17-8-14-12(7-15(17)20)9-21-10-16(14)22-18(23)6-11-3-2-4-13(19)5-11/h2-5,7-10H,6H2,1H3,(H,22,23)

> <OPENEYE_INCHIKEY>
KXCZEZCRICVIKU-UHFFFAOYSA-N

> <FORMULA>
C18H14ClFN2O2

$$$$
