R9R
  -OEChem-05102419333D

 59 63  0     1  0  0  0  0  0999 V2000
    2.0200    1.2720   -0.7470 N   0  0  0  0  0  0  0  0  0  0  0  0
    1.5760   -1.1100   -1.2470 C   0  0  1  0  0  0  0  0  0  0  0  0
    1.7470    0.0360   -0.2830 C   0  0  0  0  0  0  0  0  0  0  0  0
    2.0590    2.3550    0.1330 C   0  0  0  0  0  0  0  0  0  0  0  0
    1.4860    2.2690    1.3850 C   0  0  0  0  0  0  0  0  0  0  0  0
    2.0800    4.4360    1.9480 C   0  0  0  0  0  0  0  0  0  0  0  0
    3.3150    5.8420    0.3580 C   0  0  0  0  0  0  0  0  0  0  0  0
    3.3020    3.7360   -1.4840 C   0  0  0  0  0  0  0  0  0  0  0  0
    2.0860   -2.3750   -0.6080 C   0  0  0  0  0  0  0  0  0  0  0  0
    3.9930   -3.7210   -0.0290 C   0  0  0  0  0  0  0  0  0  0  0  0
    1.2530   -3.3100   -0.0340 C   0  0  0  0  0  0  0  0  0  0  0  0
   -0.2470   -3.1580   -0.0260 C   0  0  0  0  0  0  0  0  0  0  0  0
   -5.8500   -1.1720   -0.3460 C   0  0  0  0  0  0  0  0  0  0  0  0
   -6.7820    1.1330    0.6950 O   0  0  0  0  0  0  0  0  0  0  0  0
   -6.1910    0.6210   -0.4920 S   0  0  0  0  0  0  0  0  0  0  0  0
   -6.7040    0.9480   -1.7760 O   0  0  0  0  0  0  0  0  0  0  0  0
   -4.3660    0.7620   -0.4430 C   0  0  0  0  0  0  0  0  0  0  0  0
   -4.4790   -0.6580    0.1910 C   0  0  0  0  0  0  0  0  0  0  0  0
   -4.4910   -0.5720    1.7180 C   0  0  0  0  0  0  0  0  0  0  0  0
   -3.3370   -1.5580   -0.2840 C   0  0  0  0  0  0  0  0  0  0  0  0
   -1.7630   -0.9280    0.3610 S   0  0  0  0  0  0  0  0  0  0  0  0
   -1.5510    0.4120   -0.0640 O   0  0  0  0  0  0  0  0  0  0  0  0
   -1.5970   -1.3000    1.7220 O   0  0  0  0  0  0  0  0  0  0  0  0
   -0.6080   -1.7990   -0.4450 N   0  0  3  0  0  0  0  0  0  0  0  0
    1.7920   -4.4480    0.5510 C   0  0  0  0  0  0  0  0  0  0  0  0
    3.1560   -4.6550    0.5550 C   0  0  0  0  0  0  0  0  0  0  0  0
    5.7100   -3.9750   -0.0340 Cl  0  0  0  0  0  0  0  0  0  0  0  0
    3.4580   -2.5870   -0.6070 C   0  0  0  0  0  0  0  0  0  0  0  0
    0.0980   -1.2420   -1.6110 C   0  0  0  0  0  0  0  0  0  0  0  0
    1.6410   -0.1540    0.9100 O   0  0  0  0  0  0  0  0  0  0  0  0
    2.6900    3.5630   -0.2350 C   0  0  0  0  0  0  0  0  0  0  0  0
    3.8960    4.9250   -1.7810 C   0  0  0  0  0  0  0  0  0  0  0  0
    3.9000    5.9750   -0.8650 C   0  0  0  0  0  0  0  0  0  0  0  0
    2.6980    4.6290    0.7020 C   0  0  0  0  0  0  0  0  0  0  0  0
    1.5130    3.2870    2.2330 N   0  0  0  0  0  0  0  0  0  0  0  0
    2.1920    1.4080   -1.6920 H   0  0  0  0  0  0  0  0  0  0  0  0
    2.1510   -0.9070   -2.1510 H   0  0  0  0  0  0  0  0  0  0  0  0
    1.0030    1.3490    1.6810 H   0  0  0  0  0  0  0  0  0  0  0  0
    2.0710    5.2350    2.6740 H   0  0  0  0  0  0  0  0  0  0  0  0
    3.3270    6.6640    1.0580 H   0  0  0  0  0  0  0  0  0  0  0  0
    3.3020    2.9310   -2.2050 H   0  0  0  0  0  0  0  0  0  0  0  0
   -0.6880   -3.8790   -0.7150 H   0  0  0  0  0  0  0  0  0  0  0  0
   -0.6240   -3.3390    0.9800 H   0  0  0  0  0  0  0  0  0  0  0  0
   -6.4590   -1.6870    0.3960 H   0  0  0  0  0  0  0  0  0  0  0  0
   -5.7910   -1.6970   -1.2990 H   0  0  0  0  0  0  0  0  0  0  0  0
   -3.8900    0.7810   -1.4230 H   0  0  0  0  0  0  0  0  0  0  0  0
   -3.9920    1.5290    0.2350 H   0  0  0  0  0  0  0  0  0  0  0  0
   -4.6840   -1.5610    2.1360 H   0  0  0  0  0  0  0  0  0  0  0  0
   -3.5250   -0.2120    2.0700 H   0  0  0  0  0  0  0  0  0  0  0  0
   -5.2740    0.1160    2.0370 H   0  0  0  0  0  0  0  0  0  0  0  0
   -3.4990   -2.5730    0.0800 H   0  0  0  0  0  0  0  0  0  0  0  0
   -3.3070   -1.5630   -1.3740 H   0  0  0  0  0  0  0  0  0  0  0  0
    1.1380   -5.1760    1.0080 H   0  0  0  0  0  0  0  0  0  0  0  0
    3.5680   -5.5430    1.0120 H   0  0  0  0  0  0  0  0  0  0  0  0
    4.1130   -1.8580   -1.0610 H   0  0  0  0  0  0  0  0  0  0  0  0
   -0.3110   -0.2610   -1.8550 H   0  0  0  0  0  0  0  0  0  0  0  0
   -0.0140   -1.9110   -2.4640 H   0  0  0  0  0  0  0  0  0  0  0  0
    4.3680    5.0580   -2.7440 H   0  0  0  0  0  0  0  0  0  0  0  0
    4.3740    6.9090   -1.1280 H   0  0  0  0  0  0  0  0  0  0  0  0
  7 33  2  0  0  0  0
  7 34  1  0  0  0  0
 32 33  1  0  0  0  0
  6 34  2  0  0  0  0
  6 35  1  0  0  0  0
 31 34  1  0  0  0  0
  8 32  2  0  0  0  0
  5 35  2  0  0  0  0
  8 31  1  0  0  0  0
  4 31  2  0  0  0  0
  4  5  1  0  0  0  0
  1  4  1  0  0  0  0
  1  3  1  0  0  0  0
 21 23  2  0  0  0  0
  2  3  1  0  0  0  0
  3 30  2  0  0  0  0
  2 29  1  0  0  0  0
 24 29  1  0  0  0  0
  2  9  1  0  0  0  0
 18 19  1  0  0  0  0
 20 21  1  0  0  0  0
 21 24  1  0  0  0  0
 21 22  2  0  0  0  0
 18 20  1  0  0  0  0
 12 24  1  0  0  0  0
 13 18  1  0  0  0  0
 17 18  1  0  0  0  0
  9 28  2  0  0  0  0
  9 11  1  0  0  0  0
 13 15  1  0  0  0  0
 10 28  1  0  0  0  0
 11 12  1  0  0  0  0
 11 25  2  0  0  0  0
 14 15  2  0  0  0  0
 15 17  1  0  0  0  0
 10 27  1  0  0  0  0
 10 26  2  0  0  0  0
 15 16  2  0  0  0  0
 25 26  1  0  0  0  0
  1 36  1  0  0  0  0
  2 37  1  0  0  0  0
  5 38  1  0  0  0  0
  6 39  1  0  0  0  0
  7 40  1  0  0  0  0
  8 41  1  0  0  0  0
 12 42  1  0  0  0  0
 12 43  1  0  0  0  0
 13 44  1  0  0  0  0
 13 45  1  0  0  0  0
 17 46  1  0  0  0  0
 17 47  1  0  0  0  0
 19 48  1  0  0  0  0
 19 49  1  0  0  0  0
 19 50  1  0  0  0  0
 20 51  1  0  0  0  0
 20 52  1  0  0  0  0
 25 53  1  0  0  0  0
 26 54  1  0  0  0  0
 28 55  1  0  0  0  0
 29 56  1  0  0  0  0
 29 57  1  0  0  0  0
 32 58  1  0  0  0  0
 33 59  1  0  0  0  0
M  END
> <OPENEYE_ISO_SMILES>
CC1(CS(=O)(=O)C1)CS(=O)(=O)N2Cc3ccc(cc3[C@@H](C2)C(=O)Nc4cncc5c4cccc5)Cl

> <OPENEYE_INCHI>
InChI=1S/C24H24ClN3O5S2/c1-24(13-34(30,31)14-24)15-35(32,33)28-11-17-6-7-18(25)8-20(17)21(12-28)23(29)27-22-10-26-9-16-4-2-3-5-19(16)22/h2-10,21H,11-15H2,1H3,(H,27,29)/t21-/m1/s1

> <OPENEYE_INCHIKEY>
NHHHIEXFSUFQCS-OAQYLSRUSA-N

> <FORMULA>
C24H24ClN3O5S2

$$$$
