R9Z
  -OEChem-05102419333D

 57 61  0     1  0  0  0  0  0999 V2000
    1.4330   -0.2680    1.1370 N   0  0  0  0  0  0  0  0  0  0  0  0
   -0.0850    1.5740    1.7860 C   0  0  1  0  0  0  0  0  0  0  0  0
    0.1810    0.1330    1.4330 C   0  0  0  0  0  0  0  0  0  0  0  0
    1.6990   -1.6210    0.9170 C   0  0  0  0  0  0  0  0  0  0  0  0
    0.8800   -2.5960    1.4470 C   0  0  0  0  0  0  0  0  0  0  0  0
    2.1340   -4.3210    0.5430 C   0  0  0  0  0  0  0  0  0  0  0  0
    4.1270   -3.8370   -0.8080 C   0  0  0  0  0  0  0  0  0  0  0  0
    3.6880   -1.0990   -0.4370 C   0  0  0  0  0  0  0  0  0  0  0  0
    0.3970    2.4560    0.6640 C   0  0  0  0  0  0  0  0  0  0  0  0
    2.2670    3.5200   -0.4120 C   0  0  0  0  0  0  0  0  0  0  0  0
   -0.4490    2.9910   -0.2820 C   0  0  0  0  0  0  0  0  0  0  0  0
   -1.9400    2.7610   -0.2530 C   0  0  0  0  0  0  0  0  0  0  0  0
   -4.6900   -1.0920   -2.0610 C   0  0  0  0  0  0  0  0  0  0  0  0
    3.9690    3.8530   -0.4820 Cl  0  0  0  0  0  0  0  0  0  0  0  0
    1.7570    2.7280    0.5980 C   0  0  0  0  0  0  0  0  0  0  0  0
    1.4160    4.0490   -1.3660 C   0  0  0  0  0  0  0  0  0  0  0  0
    0.0640    3.7830   -1.2990 C   0  0  0  0  0  0  0  0  0  0  0  0
   -2.2590    1.7070    0.7160 N   0  0  3  0  0  0  0  0  0  0  0  0
   -3.3360    0.5020    0.3560 S   0  0  0  0  0  0  0  0  0  0  0  0
   -3.5320   -0.1730    1.5900 O   0  0  0  0  0  0  0  0  0  0  0  0
   -4.4090    1.1730   -0.2900 O   0  0  0  0  0  0  0  0  0  0  0  0
   -2.4500   -0.5600   -0.8180 C   0  0  0  0  0  0  0  0  0  0  0  0
   -3.4130   -1.6020   -1.3890 C   0  0  0  0  0  0  0  0  0  0  0  0
   -3.5570   -1.6720   -2.9110 C   0  0  0  0  0  0  0  0  0  0  0  0
   -3.4960   -2.8290   -0.6610 O   0  0  0  0  0  0  0  0  0  0  0  0
   -2.2850   -3.1930    0.0040 C   0  0  0  0  0  0  0  0  0  0  0  0
   -1.5830    1.7650    2.0230 C   0  0  0  0  0  0  0  0  0  0  0  0
   -0.7320   -0.6650    1.4160 O   0  0  0  0  0  0  0  0  0  0  0  0
    2.8090   -2.0230    0.1430 C   0  0  0  0  0  0  0  0  0  0  0  0
    4.7420   -1.5480   -1.1740 C   0  0  0  0  0  0  0  0  0  0  0  0
    4.9620   -2.9120   -1.3570 C   0  0  0  0  0  0  0  0  0  0  0  0
    3.0270   -3.4120   -0.0460 C   0  0  0  0  0  0  0  0  0  0  0  0
    1.1170   -3.8850    1.2480 N   0  0  0  0  0  0  0  0  0  0  0  0
    2.1480    0.3840    1.0730 H   0  0  0  0  0  0  0  0  0  0  0  0
    0.4570    1.8260    2.6980 H   0  0  0  0  0  0  0  0  0  0  0  0
    0.0250   -2.3030    2.0380 H   0  0  0  0  0  0  0  0  0  0  0  0
    2.2840   -5.3830    0.4140 H   0  0  0  0  0  0  0  0  0  0  0  0
    4.3100   -4.8910   -0.9590 H   0  0  0  0  0  0  0  0  0  0  0  0
    3.5320   -0.0390   -0.3000 H   0  0  0  0  0  0  0  0  0  0  0  0
   -2.4440    3.6840    0.0350 H   0  0  0  0  0  0  0  0  0  0  0  0
   -2.2790    2.4560   -1.2430 H   0  0  0  0  0  0  0  0  0  0  0  0
   -5.5930   -1.6920   -1.9480 H   0  0  0  0  0  0  0  0  0  0  0  0
   -4.8430   -0.0130   -2.0960 H   0  0  0  0  0  0  0  0  0  0  0  0
    2.4220    2.3150    1.3420 H   0  0  0  0  0  0  0  0  0  0  0  0
    1.8090    4.6680   -2.1590 H   0  0  0  0  0  0  0  0  0  0  0  0
   -0.6000    4.1950   -2.0450 H   0  0  0  0  0  0  0  0  0  0  0  0
   -2.0510    0.0490   -1.6290 H   0  0  0  0  0  0  0  0  0  0  0  0
   -1.6310   -1.0640   -0.3050 H   0  0  0  0  0  0  0  0  0  0  0  0
   -3.7160   -2.6540   -3.3570 H   0  0  0  0  0  0  0  0  0  0  0  0
   -2.9660   -0.9750   -3.5050 H   0  0  0  0  0  0  0  0  0  0  0  0
   -1.4660   -3.2080   -0.7150 H   0  0  0  0  0  0  0  0  0  0  0  0
   -2.0690   -2.4670    0.7870 H   0  0  0  0  0  0  0  0  0  0  0  0
   -2.3980   -4.1820    0.4480 H   0  0  0  0  0  0  0  0  0  0  0  0
   -1.9580    0.9700    2.6670 H   0  0  0  0  0  0  0  0  0  0  0  0
   -1.7620    2.7330    2.4890 H   0  0  0  0  0  0  0  0  0  0  0  0
    5.4200   -0.8360   -1.6220 H   0  0  0  0  0  0  0  0  0  0  0  0
    5.8080   -3.2400   -1.9420 H   0  0  0  0  0  0  0  0  0  0  0  0
  7 31  2  0  0  0  0
  7 32  1  0  0  0  0
 30 31  1  0  0  0  0
  6 32  2  0  0  0  0
  6 33  1  0  0  0  0
 29 32  1  0  0  0  0
  8 30  2  0  0  0  0
  5 33  2  0  0  0  0
  8 29  1  0  0  0  0
  4 29  2  0  0  0  0
  4  5  1  0  0  0  0
  1  4  1  0  0  0  0
  1  3  1  0  0  0  0
  2  3  1  0  0  0  0
  3 28  2  0  0  0  0
 19 21  2  0  0  0  0
  2 27  1  0  0  0  0
 18 27  1  0  0  0  0
  2  9  1  0  0  0  0
 13 24  1  0  0  0  0
 23 24  1  0  0  0  0
 13 23  1  0  0  0  0
 19 22  1  0  0  0  0
 22 23  1  0  0  0  0
 18 19  1  0  0  0  0
 19 20  2  0  0  0  0
 12 18  1  0  0  0  0
 23 25  1  0  0  0  0
  9 15  2  0  0  0  0
  9 11  1  0  0  0  0
 10 15  1  0  0  0  0
 11 12  1  0  0  0  0
 11 17  2  0  0  0  0
 25 26  1  0  0  0  0
 10 14  1  0  0  0  0
 10 16  2  0  0  0  0
 16 17  1  0  0  0  0
  1 34  1  0  0  0  0
  2 35  1  0  0  0  0
  5 36  1  0  0  0  0
  6 37  1  0  0  0  0
  7 38  1  0  0  0  0
  8 39  1  0  0  0  0
 12 40  1  0  0  0  0
 12 41  1  0  0  0  0
 13 42  1  0  0  0  0
 13 43  1  0  0  0  0
 15 44  1  0  0  0  0
 16 45  1  0  0  0  0
 17 46  1  0  0  0  0
 22 47  1  0  0  0  0
 22 48  1  0  0  0  0
 24 49  1  0  0  0  0
 24 50  1  0  0  0  0
 26 51  1  0  0  0  0
 26 52  1  0  0  0  0
 26 53  1  0  0  0  0
 27 54  1  0  0  0  0
 27 55  1  0  0  0  0
 30 56  1  0  0  0  0
 31 57  1  0  0  0  0
M  END
> <OPENEYE_ISO_SMILES>
COC1(CC1)CS(=O)(=O)N2Cc3ccc(cc3[C@@H](C2)C(=O)Nc4cncc5c4cccc5)Cl

> <OPENEYE_INCHI>
InChI=1S/C24H24ClN3O4S/c1-32-24(8-9-24)15-33(30,31)28-13-17-6-7-18(25)10-20(17)21(14-28)23(29)27-22-12-26-11-16-4-2-3-5-19(16)22/h2-7,10-12,21H,8-9,13-15H2,1H3,(H,27,29)/t21-/m1/s1

> <OPENEYE_INCHIKEY>
XRLQZDQTHAVICV-OAQYLSRUSA-N

> <FORMULA>
C24H24ClN3O4S

$$$$
