RD5
  -OEChem-05102419333D

 45 47  0     0  0  0  0  0  0999 V2000
    1.5860    0.8920    1.0110 N   0  0  0  0  0  0  0  0  0  0  0  0
   -4.4240    1.3920   -0.8920 C   0  0  0  0  0  0  0  0  0  0  0  0
   -3.9950    2.2500    0.1040 C   0  0  0  0  0  0  0  0  0  0  0  0
   -2.8360    1.9700    0.8070 C   0  0  0  0  0  0  0  0  0  0  0  0
   -2.1080    0.8330    0.5130 C   0  0  0  0  0  0  0  0  0  0  0  0
   -0.8460    0.5280    1.2780 C   0  0  0  0  0  0  0  0  0  0  0  0
    2.6950    1.2870    0.2590 C   0  0  0  0  0  0  0  0  0  0  0  0
    4.9950    1.0080   -0.4710 C   0  0  0  0  0  0  0  0  0  0  0  0
    6.3160   -0.8020    0.3580 C   0  0  0  0  0  0  0  0  0  0  0  0
    4.0510   -0.5810    1.1170 C   0  0  0  0  0  0  0  0  0  0  0  0
    0.1820    1.6170   -0.5460 O   0  0  0  0  0  0  0  0  0  0  0  0
    0.3430    1.0520    0.5150 C   0  0  0  0  0  0  0  0  0  0  0  0
    3.9030    0.5580    0.3160 C   0  0  0  0  0  0  0  0  0  0  0  0
    5.2420   -1.2420    1.1300 C   0  0  0  0  0  0  0  0  0  0  0  0
    6.2070    0.3010   -0.4320 C   0  0  0  0  0  0  0  0  0  0  0  0
    4.8260    2.1520   -1.2680 C   0  0  0  0  0  0  0  0  0  0  0  0
    3.6750    2.7830   -1.2810 N   0  0  0  0  0  0  0  0  0  0  0  0
    2.6330    2.3940   -0.5610 C   0  0  0  0  0  0  0  0  0  0  0  0
   -4.9100    3.6790    0.4730 Cl  0  0  0  0  0  0  0  0  0  0  0  0
   -3.6970    0.2520   -1.1820 C   0  0  0  0  0  0  0  0  0  0  0  0
   -2.5370   -0.0240   -0.4830 C   0  0  0  0  0  0  0  0  0  0  0  0
   -1.7420   -1.2640   -0.8040 C   0  0  0  0  0  0  0  0  0  0  0  0
   -2.0490   -2.3080    0.1770 N   0  0  0  0  0  0  0  0  0  0  0  0
   -1.6220   -3.8790   -0.1240 S   0  0  0  0  0  0  0  0  0  0  0  0
   -2.0930   -4.5940    1.0100 O   0  0  0  0  0  0  0  0  0  0  0  0
   -2.1390   -4.1400   -1.4220 O   0  0  0  0  0  0  0  0  0  0  0  0
    0.1920   -3.8570   -0.1550 C   0  0  0  0  0  0  0  0  0  0  0  0
    1.7110    0.4980    1.8890 H   0  0  0  0  0  0  0  0  0  0  0  0
   -5.3280    1.6100   -1.4400 H   0  0  0  0  0  0  0  0  0  0  0  0
   -2.5010    2.6400    1.5840 H   0  0  0  0  0  0  0  0  0  0  0  0
   -0.8900    1.0070    2.2560 H   0  0  0  0  0  0  0  0  0  0  0  0
   -0.7500   -0.5500    1.4050 H   0  0  0  0  0  0  0  0  0  0  0  0
    7.2490   -1.3450    0.3870 H   0  0  0  0  0  0  0  0  0  0  0  0
    3.2270   -0.9320    1.7210 H   0  0  0  0  0  0  0  0  0  0  0  0
    5.3570   -2.1210    1.7480 H   0  0  0  0  0  0  0  0  0  0  0  0
    7.0480    0.6310   -1.0250 H   0  0  0  0  0  0  0  0  0  0  0  0
    5.6440    2.5120   -1.8740 H   0  0  0  0  0  0  0  0  0  0  0  0
    1.7140    2.9580   -0.6170 H   0  0  0  0  0  0  0  0  0  0  0  0
   -4.0340   -0.4210   -1.9570 H   0  0  0  0  0  0  0  0  0  0  0  0
   -2.0030   -1.6150   -1.8020 H   0  0  0  0  0  0  0  0  0  0  0  0
   -0.6780   -1.0330   -0.7670 H   0  0  0  0  0  0  0  0  0  0  0  0
   -2.5030   -2.0790    1.0030 H   0  0  0  0  0  0  0  0  0  0  0  0
    0.5670   -3.5110    0.8080 H   0  0  0  0  0  0  0  0  0  0  0  0
    0.5640   -4.8630   -0.3500 H   0  0  0  0  0  0  0  0  0  0  0  0
    0.5340   -3.1840   -0.9420 H   0  0  0  0  0  0  0  0  0  0  0  0
  9 15  2  0  0  0  0
  8 15  1  0  0  0  0
  9 14  1  0  0  0  0
  8 16  2  0  0  0  0
 16 17  1  0  0  0  0
  8 13  1  0  0  0  0
 10 14  2  0  0  0  0
 17 18  2  0  0  0  0
 10 13  1  0  0  0  0
  7 13  2  0  0  0  0
  7 18  1  0  0  0  0
  1  7  1  0  0  0  0
  1 12  1  0  0  0  0
  6 12  1  0  0  0  0
 11 12  2  0  0  0  0
  5  6  1  0  0  0  0
  4  5  2  0  0  0  0
  5 21  1  0  0  0  0
  3  4  1  0  0  0  0
 24 27  1  0  0  0  0
 21 22  1  0  0  0  0
 22 23  1  0  0  0  0
 20 21  2  0  0  0  0
 24 26  2  0  0  0  0
 23 24  1  0  0  0  0
  3 19  1  0  0  0  0
  2  3  2  0  0  0  0
 24 25  2  0  0  0  0
  2 20  1  0  0  0  0
  1 28  1  0  0  0  0
  2 29  1  0  0  0  0
  4 30  1  0  0  0  0
  6 31  1  0  0  0  0
  6 32  1  0  0  0  0
  9 33  1  0  0  0  0
 10 34  1  0  0  0  0
 14 35  1  0  0  0  0
 15 36  1  0  0  0  0
 16 37  1  0  0  0  0
 18 38  1  0  0  0  0
 20 39  1  0  0  0  0
 22 40  1  0  0  0  0
 22 41  1  0  0  0  0
 23 42  1  0  0  0  0
 27 43  1  0  0  0  0
 27 44  1  0  0  0  0
 27 45  1  0  0  0  0
M  END
> <OPENEYE_ISO_SMILES>
CS(=O)(=O)NCc1ccc(cc1CC(=O)Nc2cncc3c2cccc3)Cl

> <OPENEYE_INCHI>
InChI=1S/C19H18ClN3O3S/c1-27(25,26)22-11-13-6-7-16(20)8-15(13)9-19(24)23-18-12-21-10-14-4-2-3-5-17(14)18/h2-8,10,12,22H,9,11H2,1H3,(H,23,24)

> <OPENEYE_INCHIKEY>
NPWJYOOGEVTHDL-UHFFFAOYSA-N

> <FORMULA>
C19H18ClN3O3S

$$$$
