RDK
  -OEChem-05102419333D

 43 46  0     1  0  0  0  0  0999 V2000
    1.5940   -0.1240    0.6530 N   0  0  0  0  0  0  0  0  0  0  0  0
   -4.0410   -0.2420   -0.8250 C   0  0  0  0  0  0  0  0  0  0  0  0
   -4.3670    1.0990   -0.9000 C   0  0  0  0  0  0  0  0  0  0  0  0
   -3.5560    2.0320   -0.2800 C   0  0  0  0  0  0  0  0  0  0  0  0
   -2.4280    1.6240    0.4010 C   0  0  0  0  0  0  0  0  0  0  0  0
   -2.0900    0.2750    0.4740 C   0  0  0  0  0  0  0  0  0  0  0  0
    2.6490   -0.1190   -0.2620 C   0  0  0  0  0  0  0  0  0  0  0  0
    4.9910    0.1950   -0.8270 C   0  0  0  0  0  0  0  0  0  0  0  0
    6.5650    0.8330    0.8530 C   0  0  0  0  0  0  0  0  0  0  0  0
    4.2670    0.5390    1.4740 C   0  0  0  0  0  0  0  0  0  0  0  0
    0.1160    0.3260   -0.9390 O   0  0  0  0  0  0  0  0  0  0  0  0
    0.3290    0.0560    0.2240 C   0  0  0  0  0  0  0  0  0  0  0  0
   -0.8200   -0.0790    1.1900 C   0  0  2  0  0  0  0  0  0  0  0  0
   -3.9580    3.7190   -0.3580 Cl  0  0  0  0  0  0  0  0  0  0  0  0
   -2.9160   -0.6480   -0.1290 C   0  0  0  0  0  0  0  0  0  0  0  0
   -2.5530   -2.3760   -0.0320 S   0  0  0  0  0  0  0  0  0  0  0  0
   -2.4060   -2.8400   -1.3670 O   0  0  0  0  0  0  0  0  0  0  0  0
   -3.4720   -2.9370    0.8960 O   0  0  0  0  0  0  0  0  0  0  0  0
   -1.0460   -2.4550    0.6750 N   0  0  0  0  0  0  0  0  0  0  0  0
   -0.8070   -1.4860    1.7640 C   0  0  0  0  0  0  0  0  0  0  0  0
   -0.6120    0.9140    2.3350 C   0  0  0  0  0  0  0  0  0  0  0  0
    3.9610    0.2080    0.1480 C   0  0  0  0  0  0  0  0  0  0  0  0
    5.5520    0.8450    1.8100 C   0  0  0  0  0  0  0  0  0  0  0  0
    6.3030    0.5150   -0.4450 C   0  0  0  0  0  0  0  0  0  0  0  0
    4.6630   -0.1400   -2.1510 C   0  0  0  0  0  0  0  0  0  0  0  0
    3.4250   -0.4400   -2.4680 N   0  0  0  0  0  0  0  0  0  0  0  0
    2.4360   -0.4390   -1.5870 C   0  0  0  0  0  0  0  0  0  0  0  0
    1.7720   -0.2600    1.5970 H   0  0  0  0  0  0  0  0  0  0  0  0
   -4.6700   -0.9760   -1.3060 H   0  0  0  0  0  0  0  0  0  0  0  0
   -5.2470    1.4150   -1.4400 H   0  0  0  0  0  0  0  0  0  0  0  0
   -1.8000    2.3590    0.8830 H   0  0  0  0  0  0  0  0  0  0  0  0
    7.5750    1.0800    1.1460 H   0  0  0  0  0  0  0  0  0  0  0  0
    3.4910    0.5520    2.2250 H   0  0  0  0  0  0  0  0  0  0  0  0
   -0.3740   -3.0960    0.3930 H   0  0  0  0  0  0  0  0  0  0  0  0
    0.1620   -1.6840    2.2230 H   0  0  0  0  0  0  0  0  0  0  0  0
   -1.5920   -1.5800    2.5140 H   0  0  0  0  0  0  0  0  0  0  0  0
   -0.6600    1.9310    1.9470 H   0  0  0  0  0  0  0  0  0  0  0  0
   -1.3910    0.7730    3.0840 H   0  0  0  0  0  0  0  0  0  0  0  0
    0.3640    0.7440    2.7900 H   0  0  0  0  0  0  0  0  0  0  0  0
    5.7880    1.1000    2.8320 H   0  0  0  0  0  0  0  0  0  0  0  0
    7.0990    0.5100   -1.1750 H   0  0  0  0  0  0  0  0  0  0  0  0
    5.4320   -0.1560   -2.9090 H   0  0  0  0  0  0  0  0  0  0  0  0
    1.4390   -0.6950   -1.9130 H   0  0  0  0  0  0  0  0  0  0  0  0
  9 24  2  0  0  0  0
  8 24  1  0  0  0  0
  9 23  1  0  0  0  0
  8 25  2  0  0  0  0
 25 26  1  0  0  0  0
  8 22  1  0  0  0  0
 10 23  2  0  0  0  0
 26 27  2  0  0  0  0
 10 22  1  0  0  0  0
  7 22  2  0  0  0  0
  7 27  1  0  0  0  0
  1  7  1  0  0  0  0
  1 12  1  0  0  0  0
 13 21  1  0  0  0  0
 12 13  1  0  0  0  0
 11 12  2  0  0  0  0
 13 20  1  0  0  0  0
  6 13  1  0  0  0  0
 19 20  1  0  0  0  0
 16 19  1  0  0  0  0
  5  6  2  0  0  0  0
  6 15  1  0  0  0  0
  4  5  1  0  0  0  0
 15 16  1  0  0  0  0
  2 15  2  0  0  0  0
  4 14  1  0  0  0  0
  3  4  2  0  0  0  0
 16 18  2  0  0  0  0
 16 17  2  0  0  0  0
  2  3  1  0  0  0  0
  1 28  1  0  0  0  0
  2 29  1  0  0  0  0
  3 30  1  0  0  0  0
  5 31  1  0  0  0  0
  9 32  1  0  0  0  0
 10 33  1  0  0  0  0
 19 34  1  0  0  0  0
 20 35  1  0  0  0  0
 20 36  1  0  0  0  0
 21 37  1  0  0  0  0
 21 38  1  0  0  0  0
 21 39  1  0  0  0  0
 23 40  1  0  0  0  0
 24 41  1  0  0  0  0
 25 42  1  0  0  0  0
 27 43  1  0  0  0  0
M  END
> <OPENEYE_ISO_SMILES>
C[C@]1(CNS(=O)(=O)c2c1cc(cc2)Cl)C(=O)Nc3cncc4c3cccc4

> <OPENEYE_INCHI>
InChI=1S/C19H16ClN3O3S/c1-19(11-22-27(25,26)17-7-6-13(20)8-15(17)19)18(24)23-16-10-21-9-12-4-2-3-5-14(12)16/h2-10,22H,11H2,1H3,(H,23,24)/t19-/m1/s1

> <OPENEYE_INCHIKEY>
PHRFKYXEKRVOIU-LJQANCHMSA-N

> <FORMULA>
C19H16ClN3O3S

$$$$
