RG9
  -OEChem-05102419333D

 44 46  0     0  0  0  0  0  0999 V2000
    1.3380   -2.6110    1.1980 N   0  0  0  0  0  0  0  0  0  0  0  0
    3.8050    1.1780   -0.8110 C   0  0  0  0  0  0  0  0  0  0  0  0
    2.5080    0.7700   -0.9030 C   0  0  0  0  0  0  0  0  0  0  0  0
    2.0920   -0.3690   -0.2010 C   0  0  0  0  0  0  0  0  0  0  0  0
    0.7630   -0.8430   -0.2570 C   0  0  0  0  0  0  0  0  0  0  0  0
   -1.5060   -0.2990   -0.7130 C   0  0  0  0  0  0  0  0  0  0  0  0
   -3.9210    0.0400   -1.0420 C   0  0  0  0  0  0  0  0  0  0  0  0
   -6.4380   -0.4480   -0.0060 C   0  0  0  0  0  0  0  0  0  0  0  0
   -4.4900    0.9380   -0.1600 C   0  0  0  0  0  0  0  0  0  0  0  0
    2.5880   -2.2210    1.2900 C   0  0  0  0  0  0  0  0  0  0  0  0
   -6.4650    1.8230    1.4680 Cl  0  0  0  0  0  0  0  0  0  0  0  0
   -5.7490    0.6950    0.3590 C   0  0  0  0  0  0  0  0  0  0  0  0
   -5.8680   -1.3460   -0.8890 C   0  0  0  0  0  0  0  0  0  0  0  0
   -4.6100   -1.1020   -1.4060 C   0  0  0  0  0  0  0  0  0  0  0  0
   -2.5520    0.3080   -1.6120 C   0  0  0  0  0  0  0  0  0  0  0  0
   -1.8390   -0.8910    0.2920 O   0  0  0  0  0  0  0  0  0  0  0  0
   -0.2000   -0.1840   -1.0250 N   0  0  0  0  0  0  0  0  0  0  0  0
    0.4370   -1.9720    0.4650 C   0  0  0  0  0  0  0  0  0  0  0  0
    3.0250   -1.0810    0.5950 C   0  0  0  0  0  0  0  0  0  0  0  0
    4.3530   -0.6310    0.6660 C   0  0  0  0  0  0  0  0  0  0  0  0
    4.7230    0.4800   -0.0290 C   0  0  0  0  0  0  0  0  0  0  0  0
    6.1480    0.9620    0.0480 C   0  0  0  0  0  0  0  0  0  0  0  0
    7.0170   -0.1530    0.2610 O   0  0  0  0  0  0  0  0  0  0  0  0
    6.5230    1.6580   -1.2620 C   0  0  0  0  0  0  0  0  0  0  0  0
    6.2910    1.9480    1.2090 C   0  0  0  0  0  0  0  0  0  0  0  0
    4.1260    2.0560   -1.3520 H   0  0  0  0  0  0  0  0  0  0  0  0
    1.8060    1.3200   -1.5120 H   0  0  0  0  0  0  0  0  0  0  0  0
   -7.4210   -0.6390    0.3990 H   0  0  0  0  0  0  0  0  0  0  0  0
   -3.9520    1.8300    0.1250 H   0  0  0  0  0  0  0  0  0  0  0  0
    3.2820   -2.7770    1.9020 H   0  0  0  0  0  0  0  0  0  0  0  0
   -6.4060   -2.2380   -1.1740 H   0  0  0  0  0  0  0  0  0  0  0  0
   -4.1650   -1.8040   -2.0960 H   0  0  0  0  0  0  0  0  0  0  0  0
   -2.3920    1.3840   -1.6810 H   0  0  0  0  0  0  0  0  0  0  0  0
   -2.4790   -0.1350   -2.6050 H   0  0  0  0  0  0  0  0  0  0  0  0
    0.0720    0.3570   -1.7830 H   0  0  0  0  0  0  0  0  0  0  0  0
   -0.5750   -2.3460    0.4310 H   0  0  0  0  0  0  0  0  0  0  0  0
    5.0760   -1.1620    1.2680 H   0  0  0  0  0  0  0  0  0  0  0  0
    6.8370   -0.6420    1.0750 H   0  0  0  0  0  0  0  0  0  0  0  0
    5.8600    2.5080   -1.4240 H   0  0  0  0  0  0  0  0  0  0  0  0
    7.5540    2.0070   -1.2060 H   0  0  0  0  0  0  0  0  0  0  0  0
    6.4220    0.9550   -2.0890 H   0  0  0  0  0  0  0  0  0  0  0  0
    6.0240    1.4520    2.1420 H   0  0  0  0  0  0  0  0  0  0  0  0
    7.3220    2.2970    1.2650 H   0  0  0  0  0  0  0  0  0  0  0  0
    5.6280    2.7980    1.0460 H   0  0  0  0  0  0  0  0  0  0  0  0
 22 25  1  0  0  0  0
 22 23  1  0  0  0  0
 21 22  1  0  0  0  0
 22 24  1  0  0  0  0
 20 21  2  0  0  0  0
 19 20  1  0  0  0  0
  2 21  1  0  0  0  0
 10 19  2  0  0  0  0
  1 10  1  0  0  0  0
  4 19  1  0  0  0  0
  1 18  2  0  0  0  0
  2  3  2  0  0  0  0
  3  4  1  0  0  0  0
  4  5  2  0  0  0  0
  5 18  1  0  0  0  0
  5 17  1  0  0  0  0
  6 17  1  0  0  0  0
  6 15  1  0  0  0  0
  6 16  2  0  0  0  0
  7 15  1  0  0  0  0
  7  9  2  0  0  0  0
  7 14  1  0  0  0  0
  9 12  1  0  0  0  0
 13 14  2  0  0  0  0
 11 12  1  0  0  0  0
  8 12  2  0  0  0  0
  8 13  1  0  0  0  0
  2 26  1  0  0  0  0
  3 27  1  0  0  0  0
  8 28  1  0  0  0  0
  9 29  1  0  0  0  0
 10 30  1  0  0  0  0
 13 31  1  0  0  0  0
 14 32  1  0  0  0  0
 15 33  1  0  0  0  0
 15 34  1  0  0  0  0
 17 35  1  0  0  0  0
 18 36  1  0  0  0  0
 20 37  1  0  0  0  0
 23 38  1  0  0  0  0
 24 39  1  0  0  0  0
 24 40  1  0  0  0  0
 24 41  1  0  0  0  0
 25 42  1  0  0  0  0
 25 43  1  0  0  0  0
 25 44  1  0  0  0  0
M  END
> <OPENEYE_ISO_SMILES>
CC(C)(c1ccc2c(c1)cncc2NC(=O)Cc3cccc(c3)Cl)O

> <OPENEYE_INCHI>
InChI=1S/C20H19ClN2O2/c1-20(2,25)15-6-7-17-14(10-15)11-22-12-18(17)23-19(24)9-13-4-3-5-16(21)8-13/h3-8,10-12,25H,9H2,1-2H3,(H,23,24)

> <OPENEYE_INCHIKEY>
OUTGZQNFEUVFAN-UHFFFAOYSA-N

> <FORMULA>
C20H19ClN2O2

$$$$
