RIU
  -OEChem-05102419333D

 49 51  0     0  0  0  0  0  0999 V2000
    0.0220    3.8510   -0.7560 N   0  0  0  0  0  0  0  0  0  0  0  0
    3.6050    0.5620    0.1600 C   0  0  0  0  0  0  0  0  0  0  0  0
    4.2140    1.6460   -0.4800 C   0  0  0  0  0  0  0  0  0  0  0  0
    3.4890    2.7300   -0.8670 C   0  0  0  0  0  0  0  0  0  0  0  0
    2.1060    2.7630   -0.6220 C   0  0  0  0  0  0  0  0  0  0  0  0
    1.3110    3.8560   -1.0010 C   0  0  0  0  0  0  0  0  0  0  0  0
    0.0950    1.7220    0.2590 C   0  0  0  0  0  0  0  0  0  0  0  0
   -4.0770   -0.5850    1.0390 C   0  0  0  0  0  0  0  0  0  0  0  0
   -6.3180    0.2160    1.3040 C   0  0  0  0  0  0  0  0  0  0  0  0
   -5.8160   -1.3960   -0.3940 C   0  0  0  0  0  0  0  0  0  0  0  0
    2.2600    0.5620    0.4130 C   0  0  0  0  0  0  0  0  0  0  0  0
   -6.3330   -2.4110   -1.7040 Cl  0  0  0  0  0  0  0  0  0  0  0  0
   -6.7310   -0.5910    0.2600 C   0  0  0  0  0  0  0  0  0  0  0  0
   -4.9920    0.2190    1.6930 C   0  0  0  0  0  0  0  0  0  0  0  0
   -4.4880   -1.3930   -0.0040 C   0  0  0  0  0  0  0  0  0  0  0  0
   -2.6300   -0.5770    1.4600 C   0  0  0  0  0  0  0  0  0  0  0  0
   -1.8870    0.4790    0.6820 C   0  0  0  0  0  0  0  0  0  0  0  0
   -2.4750    1.1570   -0.1330 O   0  0  0  0  0  0  0  0  0  0  0  0
   -0.5700    0.6690    0.8930 N   0  0  0  0  0  0  0  0  0  0  0  0
   -0.5930    2.8430   -0.1540 C   0  0  0  0  0  0  0  0  0  0  0  0
    1.4870    1.6620    0.0260 C   0  0  0  0  0  0  0  0  0  0  0  0
    4.3580   -0.5040    0.5360 O   0  0  0  0  0  0  0  0  0  0  0  0
    5.7560   -0.4460    0.2450 C   0  0  0  0  0  0  0  0  0  0  0  0
    6.4330   -1.7260    0.7390 C   0  0  0  0  0  0  0  0  0  0  0  0
    5.9250   -2.8740   -0.0240 N   0  0  0  0  0  0  0  0  0  0  0  0
    6.3260   -2.7880   -1.4350 C   0  0  0  0  0  0  0  0  0  0  0  0
    6.3690   -4.1410    0.5730 C   0  0  0  0  0  0  0  0  0  0  0  0
    5.2770    1.6230   -0.6680 H   0  0  0  0  0  0  0  0  0  0  0  0
    3.9730    3.5600   -1.3590 H   0  0  0  0  0  0  0  0  0  0  0  0
    1.7620    4.7030   -1.4950 H   0  0  0  0  0  0  0  0  0  0  0  0
   -7.0320    0.8450    1.8140 H   0  0  0  0  0  0  0  0  0  0  0  0
    1.8000   -0.2800    0.9080 H   0  0  0  0  0  0  0  0  0  0  0  0
   -7.7670   -0.5940   -0.0440 H   0  0  0  0  0  0  0  0  0  0  0  0
   -4.6700    0.8500    2.5080 H   0  0  0  0  0  0  0  0  0  0  0  0
   -3.7740   -2.0210   -0.5150 H   0  0  0  0  0  0  0  0  0  0  0  0
   -2.5630   -0.3580    2.5250 H   0  0  0  0  0  0  0  0  0  0  0  0
   -2.1880   -1.5530    1.2610 H   0  0  0  0  0  0  0  0  0  0  0  0
   -0.0830    0.0750    1.4850 H   0  0  0  0  0  0  0  0  0  0  0  0
   -1.6570    2.9020    0.0190 H   0  0  0  0  0  0  0  0  0  0  0  0
    5.8990   -0.3510   -0.8310 H   0  0  0  0  0  0  0  0  0  0  0  0
    6.1960    0.4150    0.7480 H   0  0  0  0  0  0  0  0  0  0  0  0
    7.5110   -1.6450    0.5980 H   0  0  0  0  0  0  0  0  0  0  0  0
    6.2140   -1.8680    1.7970 H   0  0  0  0  0  0  0  0  0  0  0  0
    7.4140   -2.7770   -1.5030 H   0  0  0  0  0  0  0  0  0  0  0  0
    5.9370   -3.6500   -1.9770 H   0  0  0  0  0  0  0  0  0  0  0  0
    5.9250   -1.8730   -1.8710 H   0  0  0  0  0  0  0  0  0  0  0  0
    5.9980   -4.2100    1.5960 H   0  0  0  0  0  0  0  0  0  0  0  0
    5.9780   -4.9740   -0.0120 H   0  0  0  0  0  0  0  0  0  0  0  0
    7.4580   -4.1790    0.5770 H   0  0  0  0  0  0  0  0  0  0  0  0
  3  4  2  0  0  0  0
  4  5  1  0  0  0  0
  2  3  1  0  0  0  0
 23 24  1  0  0  0  0
 24 25  1  0  0  0  0
  5  6  2  0  0  0  0
  1  6  1  0  0  0  0
  5 21  1  0  0  0  0
 22 23  1  0  0  0  0
  2 22  1  0  0  0  0
  2 11  2  0  0  0  0
  1 20  2  0  0  0  0
 11 21  1  0  0  0  0
  7 21  2  0  0  0  0
 25 27  1  0  0  0  0
  7 20  1  0  0  0  0
  7 19  1  0  0  0  0
 25 26  1  0  0  0  0
 17 19  1  0  0  0  0
 16 17  1  0  0  0  0
 17 18  2  0  0  0  0
  8 16  1  0  0  0  0
  8 15  2  0  0  0  0
  8 14  1  0  0  0  0
 10 15  1  0  0  0  0
  9 14  2  0  0  0  0
 10 12  1  0  0  0  0
 10 13  2  0  0  0  0
  9 13  1  0  0  0  0
  3 28  1  0  0  0  0
  4 29  1  0  0  0  0
  6 30  1  0  0  0  0
  9 31  1  0  0  0  0
 11 32  1  0  0  0  0
 13 33  1  0  0  0  0
 14 34  1  0  0  0  0
 15 35  1  0  0  0  0
 16 36  1  0  0  0  0
 16 37  1  0  0  0  0
 19 38  1  0  0  0  0
 20 39  1  0  0  0  0
 23 40  1  0  0  0  0
 23 41  1  0  0  0  0
 24 42  1  0  0  0  0
 24 43  1  0  0  0  0
 26 44  1  0  0  0  0
 26 45  1  0  0  0  0
 26 46  1  0  0  0  0
 27 47  1  0  0  0  0
 27 48  1  0  0  0  0
 27 49  1  0  0  0  0
M  END
> <OPENEYE_ISO_SMILES>
CN(C)CCOc1ccc2cncc(c2c1)NC(=O)Cc3cccc(c3)Cl

> <OPENEYE_INCHI>
InChI=1S/C21H22ClN3O2/c1-25(2)8-9-27-18-7-6-16-13-23-14-20(19(16)12-18)24-21(26)11-15-4-3-5-17(22)10-15/h3-7,10,12-14H,8-9,11H2,1-2H3,(H,24,26)

> <OPENEYE_INCHIKEY>
XNJZKRXHKUJCAT-UHFFFAOYSA-N

> <FORMULA>
C21H22ClN3O2

$$$$
