RJ3
  -OEChem-05102419333D

 37 39  0     0  0  0  0  0  0999 V2000
    1.6210   -2.6570    1.0020 N   0  0  0  0  0  0  0  0  0  0  0  0
    2.3600   -0.3000   -0.2070 C   0  0  0  0  0  0  0  0  0  0  0  0
    1.0360   -0.7810   -0.3080 C   0  0  0  0  0  0  0  0  0  0  0  0
   -1.2360   -0.2210   -0.7270 C   0  0  0  0  0  0  0  0  0  0  0  0
   -2.2840    0.4470   -1.5780 C   0  0  0  0  0  0  0  0  0  0  0  0
   -3.6530    0.1220   -1.0380 C   0  0  0  0  0  0  0  0  0  0  0  0
   -5.5830   -1.2950   -0.9980 C   0  0  0  0  0  0  0  0  0  0  0  0
   -4.2330    0.9400   -0.0870 C   0  0  0  0  0  0  0  0  0  0  0  0
    2.8660   -2.2640    1.1320 C   0  0  0  0  0  0  0  0  0  0  0  0
    4.6180   -0.6160    0.6510 C   0  0  0  0  0  0  0  0  0  0  0  0
   -6.2200    1.6690    1.6020 Cl  0  0  0  0  0  0  0  0  0  0  0  0
   -5.4900    0.6410    0.4080 C   0  0  0  0  0  0  0  0  0  0  0  0
   -6.1650   -0.4770   -0.0480 C   0  0  0  0  0  0  0  0  0  0  0  0
   -4.3300   -0.9930   -1.4970 C   0  0  0  0  0  0  0  0  0  0  0  0
   -1.5670   -0.8960    0.2250 O   0  0  0  0  0  0  0  0  0  0  0  0
    0.0700   -0.0700   -1.0240 N   0  0  0  0  0  0  0  0  0  0  0  0
    0.7180   -1.9680    0.3180 C   0  0  0  0  0  0  0  0  0  0  0  0
    3.2960   -1.0670    0.5340 C   0  0  0  0  0  0  0  0  0  0  0  0
    2.7620    0.8980   -0.8150 C   0  0  0  0  0  0  0  0  0  0  0  0
    4.0470    1.3220   -0.6920 C   0  0  0  0  0  0  0  0  0  0  0  0
    4.9860    0.5720    0.0400 C   0  0  0  0  0  0  0  0  0  0  0  0
    6.3770    1.0560    0.1580 C   0  0  0  0  0  0  0  0  0  0  0  0
    6.7410    2.2100   -0.4340 O   0  0  0  0  0  0  0  0  0  0  0  0
    7.1920    0.4130    0.7890 O   0  0  0  0  0  0  0  0  0  0  0  0
   -2.1340    1.5270   -1.5590 H   0  0  0  0  0  0  0  0  0  0  0  0
   -2.2030    0.0870   -2.6040 H   0  0  0  0  0  0  0  0  0  0  0  0
   -6.1100   -2.1680   -1.3540 H   0  0  0  0  0  0  0  0  0  0  0  0
   -3.7050    1.8130    0.2680 H   0  0  0  0  0  0  0  0  0  0  0  0
    3.5620   -2.8620    1.7010 H   0  0  0  0  0  0  0  0  0  0  0  0
    5.3420   -1.1880    1.2120 H   0  0  0  0  0  0  0  0  0  0  0  0
   -7.1440   -0.7130    0.3420 H   0  0  0  0  0  0  0  0  0  0  0  0
   -3.8780   -1.6300   -2.2430 H   0  0  0  0  0  0  0  0  0  0  0  0
    0.3400    0.5330   -1.7340 H   0  0  0  0  0  0  0  0  0  0  0  0
   -0.2910   -2.3470    0.2490 H   0  0  0  0  0  0  0  0  0  0  0  0
    2.0510    1.4830   -1.3810 H   0  0  0  0  0  0  0  0  0  0  0  0
    4.3520    2.2450   -1.1620 H   0  0  0  0  0  0  0  0  0  0  0  0
    7.6620    2.4860   -0.3290 H   0  0  0  0  0  0  0  0  0  0  0  0
 22 24  2  0  0  0  0
 22 23  1  0  0  0  0
 21 22  1  0  0  0  0
 10 21  2  0  0  0  0
 20 21  1  0  0  0  0
 10 18  1  0  0  0  0
 19 20  2  0  0  0  0
  9 18  2  0  0  0  0
  1  9  1  0  0  0  0
  2 18  1  0  0  0  0
  1 17  2  0  0  0  0
  2 19  1  0  0  0  0
  2  3  2  0  0  0  0
  3 17  1  0  0  0  0
  3 16  1  0  0  0  0
  4 16  1  0  0  0  0
  4  5  1  0  0  0  0
  4 15  2  0  0  0  0
  5  6  1  0  0  0  0
  6  8  2  0  0  0  0
  6 14  1  0  0  0  0
  8 12  1  0  0  0  0
  7 14  2  0  0  0  0
 11 12  1  0  0  0  0
 12 13  2  0  0  0  0
  7 13  1  0  0  0  0
  5 25  1  0  0  0  0
  5 26  1  0  0  0  0
  7 27  1  0  0  0  0
  8 28  1  0  0  0  0
  9 29  1  0  0  0  0
 10 30  1  0  0  0  0
 13 31  1  0  0  0  0
 14 32  1  0  0  0  0
 16 33  1  0  0  0  0
 17 34  1  0  0  0  0
 19 35  1  0  0  0  0
 20 36  1  0  0  0  0
 23 37  1  0  0  0  0
M  END
> <OPENEYE_ISO_SMILES>
c1cc(cc(c1)Cl)CC(=O)Nc2cncc3c2ccc(c3)C(=O)O

> <OPENEYE_INCHI>
InChI=1S/C18H13ClN2O3/c19-14-3-1-2-11(6-14)7-17(22)21-16-10-20-9-13-8-12(18(23)24)4-5-15(13)16/h1-6,8-10H,7H2,(H,21,22)(H,23,24)

> <OPENEYE_INCHIKEY>
OOJDKYAMUUAETB-UHFFFAOYSA-N

> <FORMULA>
C18H13ClN2O3

$$$$
