RJO
  -OEChem-05102419333D

 49 52  0     1  0  0  0  0  0999 V2000
    2.9040    0.6440    0.1530 N   0  0  0  0  0  0  0  0  0  0  0  0
   -2.5420    2.8870   -1.8530 N   0  0  0  0  0  0  0  0  0  0  0  0
    0.9030   -0.2930    1.2400 C   0  0  1  0  0  0  0  0  0  0  0  0
   -0.0620    0.6740    0.6040 C   0  0  0  0  0  0  0  0  0  0  0  0
   -2.2180    1.1720   -0.2640 C   0  0  0  0  0  0  0  0  0  0  0  0
   -1.7340    2.0750   -1.1860 C   0  0  0  0  0  0  0  0  0  0  0  0
   -3.8440    2.8920   -1.6860 C   0  0  0  0  0  0  0  0  0  0  0  0
   -5.8300    1.9850   -0.5620 C   0  0  0  0  0  0  0  0  0  0  0  0
   -4.1870    0.2380    0.8820 C   0  0  0  0  0  0  0  0  0  0  0  0
    1.0620   -1.4970    0.3500 C   0  0  0  0  0  0  0  0  0  0  0  0
    0.4540   -3.7180   -0.2960 C   0  0  0  0  0  0  0  0  0  0  0  0
    2.0120   -1.4670   -0.6770 C   0  0  0  0  0  0  0  0  0  0  0  0
    2.8220   -0.2440   -0.8590 C   0  0  0  0  0  0  0  0  0  0  0  0
    3.4050   -0.0410   -1.9060 O   0  0  0  0  0  0  0  0  0  0  0  0
    3.6550    1.8870   -0.0410 C   0  0  0  0  0  0  0  0  0  0  0  0
    5.0610    1.7100    0.4720 C   0  0  0  0  0  0  0  0  0  0  0  0
    5.4290    0.6250    0.8680 O   0  0  0  0  0  0  0  0  0  0  0  0
    5.9080    2.7580    0.4910 N   0  0  0  0  0  0  0  0  0  0  0  0
    7.2750    2.5860    0.9900 C   0  0  0  0  0  0  0  0  0  0  0  0
    2.1730   -2.5710   -1.5100 C   0  0  0  0  0  0  0  0  0  0  0  0
    1.3920   -3.6920   -1.3150 C   0  0  0  0  0  0  0  0  0  0  0  0
   -0.5230   -5.1330   -0.0590 Cl  0  0  0  0  0  0  0  0  0  0  0  0
    0.2940   -2.6240    0.5390 C   0  0  0  0  0  0  0  0  0  0  0  0
    2.2530    0.3920    1.4350 C   0  0  0  0  0  0  0  0  0  0  0  0
    0.3220    1.7690    0.2490 O   0  0  0  0  0  0  0  0  0  0  0  0
   -1.3510    0.3240    0.4290 N   0  0  0  0  0  0  0  0  0  0  0  0
   -3.6110    1.1250   -0.0360 C   0  0  0  0  0  0  0  0  0  0  0  0
   -5.5400    0.2390    1.0590 C   0  0  0  0  0  0  0  0  0  0  0  0
   -6.0970   -0.6160    1.9450 F   0  0  0  0  0  0  0  0  0  0  0  0
   -6.3580    1.1110    0.3380 C   0  0  0  0  0  0  0  0  0  0  0  0
   -4.4410    2.0110   -0.7700 C   0  0  0  0  0  0  0  0  0  0  0  0
    0.5130   -0.6070    2.2080 H   0  0  0  0  0  0  0  0  0  0  0  0
   -0.6710    2.1220   -1.3710 H   0  0  0  0  0  0  0  0  0  0  0  0
   -4.4570    3.5750   -2.2540 H   0  0  0  0  0  0  0  0  0  0  0  0
   -6.4750    2.6530   -1.1130 H   0  0  0  0  0  0  0  0  0  0  0  0
   -3.5650   -0.4410    1.4470 H   0  0  0  0  0  0  0  0  0  0  0  0
    3.6840    2.1330   -1.1030 H   0  0  0  0  0  0  0  0  0  0  0  0
    3.1670    2.6950    0.5050 H   0  0  0  0  0  0  0  0  0  0  0  0
    5.6130    3.6260    0.1740 H   0  0  0  0  0  0  0  0  0  0  0  0
    7.2440    2.2540    2.0270 H   0  0  0  0  0  0  0  0  0  0  0  0
    7.7910    1.8400    0.3850 H   0  0  0  0  0  0  0  0  0  0  0  0
    7.8060    3.5360    0.9280 H   0  0  0  0  0  0  0  0  0  0  0  0
    2.9050   -2.5500   -2.3050 H   0  0  0  0  0  0  0  0  0  0  0  0
    1.5090   -4.5500   -1.9610 H   0  0  0  0  0  0  0  0  0  0  0  0
   -0.4360   -2.6530    1.3350 H   0  0  0  0  0  0  0  0  0  0  0  0
    2.8940   -0.2470    2.0420 H   0  0  0  0  0  0  0  0  0  0  0  0
    2.1020    1.3400    1.9520 H   0  0  0  0  0  0  0  0  0  0  0  0
   -1.6770   -0.5180    0.7840 H   0  0  0  0  0  0  0  0  0  0  0  0
   -7.4260    1.0920    0.4970 H   0  0  0  0  0  0  0  0  0  0  0  0
  8 30  2  0  0  0  0
  8 31  1  0  0  0  0
 28 30  1  0  0  0  0
  7 31  2  0  0  0  0
  2  7  1  0  0  0  0
 27 31  1  0  0  0  0
  2  6  2  0  0  0  0
 28 29  1  0  0  0  0
  9 28  2  0  0  0  0
  9 27  1  0  0  0  0
  5 27  2  0  0  0  0
  5  6  1  0  0  0  0
  5 26  1  0  0  0  0
  4 26  1  0  0  0  0
  3  4  1  0  0  0  0
  4 25  2  0  0  0  0
  3 24  1  0  0  0  0
  3 10  1  0  0  0  0
  1 24  1  0  0  0  0
 18 19  1  0  0  0  0
 15 16  1  0  0  0  0
  1 15  1  0  0  0  0
 16 18  1  0  0  0  0
 16 17  2  0  0  0  0
  1 13  1  0  0  0  0
 10 23  2  0  0  0  0
 10 12  1  0  0  0  0
 11 23  1  0  0  0  0
 12 13  1  0  0  0  0
 13 14  2  0  0  0  0
 12 20  2  0  0  0  0
 11 22  1  0  0  0  0
 11 21  2  0  0  0  0
 20 21  1  0  0  0  0
  3 32  1  0  0  0  0
  6 33  1  0  0  0  0
  7 34  1  0  0  0  0
  8 35  1  0  0  0  0
  9 36  1  0  0  0  0
 15 37  1  0  0  0  0
 15 38  1  0  0  0  0
 18 39  1  0  0  0  0
 19 40  1  0  0  0  0
 19 41  1  0  0  0  0
 19 42  1  0  0  0  0
 20 43  1  0  0  0  0
 21 44  1  0  0  0  0
 23 45  1  0  0  0  0
 24 46  1  0  0  0  0
 24 47  1  0  0  0  0
 26 48  1  0  0  0  0
 30 49  1  0  0  0  0
M  END
> <OPENEYE_ISO_SMILES>
CNC(=O)CN1C[C@H](c2cc(ccc2C1=O)Cl)C(=O)Nc3cncc4c3cc(cc4)F

> <OPENEYE_INCHI>
InChI=1S/C22H18ClFN4O3/c1-25-20(29)11-28-10-18(17-6-13(23)3-5-15(17)22(28)31)21(30)27-19-9-26-8-12-2-4-14(24)7-16(12)19/h2-9,18H,10-11H2,1H3,(H,25,29)(H,27,30)/t18-/m1/s1

> <OPENEYE_INCHIKEY>
ZCROYMPHCXUWGH-GOSISDBHSA-N

> <FORMULA>
C22H18ClFN4O3

$$$$
