RJX
  -OEChem-05102419333D

 37 39  0     0  0  0  0  0  0999 V2000
    0.3920   -0.3120   -1.0630 N   0  0  0  0  0  0  0  0  0  0  0  0
    3.4070   -1.6530    0.6510 C   0  0  0  0  0  0  0  0  0  0  0  0
    2.9210   -2.9410    0.9250 C   0  0  0  0  0  0  0  0  0  0  0  0
    0.8890   -2.4570   -0.0760 C   0  0  0  0  0  0  0  0  0  0  0  0
    1.2670   -1.1680   -0.3940 C   0  0  0  0  0  0  0  0  0  0  0  0
   -0.9320   -0.3770   -0.8180 C   0  0  0  0  0  0  0  0  0  0  0  0
   -3.2800    0.3300   -1.0260 C   0  0  0  0  0  0  0  0  0  0  0  0
   -5.8800   -0.1910   -0.2390 C   0  0  0  0  0  0  0  0  0  0  0  0
   -3.7910    0.9290    0.1100 C   0  0  0  0  0  0  0  0  0  0  0  0
    3.0220    0.5530   -0.3120 C   0  0  0  0  0  0  0  0  0  0  0  0
   -5.7340    1.4220    1.9300 Cl  0  0  0  0  0  0  0  0  0  0  0  0
   -5.0920    0.6690    0.5040 C   0  0  0  0  0  0  0  0  0  0  0  0
   -5.3680   -0.7900   -1.3750 C   0  0  0  0  0  0  0  0  0  0  0  0
   -4.0680   -0.5300   -1.7680 C   0  0  0  0  0  0  0  0  0  0  0  0
   -1.8660    0.6180   -1.4580 C   0  0  0  0  0  0  0  0  0  0  0  0
   -1.3720   -1.2350   -0.0830 O   0  0  0  0  0  0  0  0  0  0  0  0
    1.7080   -3.2830    0.5580 N   0  0  0  0  0  0  0  0  0  0  0  0
    2.5620   -0.7370   -0.0270 C   0  0  0  0  0  0  0  0  0  0  0  0
    4.6990   -1.2540    1.0350 C   0  0  0  0  0  0  0  0  0  0  0  0
    5.1300    0.0030    0.7560 C   0  0  0  0  0  0  0  0  0  0  0  0
    4.3000    0.9190    0.0840 C   0  0  0  0  0  0  0  0  0  0  0  0
    4.7950    2.2800   -0.2070 C   0  0  0  0  0  0  0  0  0  0  0  0
    4.0820    3.0750   -0.7870 O   0  0  0  0  0  0  0  0  0  0  0  0
    6.0370    2.6400    0.1700 O   0  0  0  0  0  0  0  0  0  0  0  0
    0.7370    0.3320   -1.7010 H   0  0  0  0  0  0  0  0  0  0  0  0
    3.5470   -3.6550    1.4400 H   0  0  0  0  0  0  0  0  0  0  0  0
   -0.0970   -2.8010   -0.3500 H   0  0  0  0  0  0  0  0  0  0  0  0
   -6.8950   -0.3950    0.0680 H   0  0  0  0  0  0  0  0  0  0  0  0
   -3.1750    1.6010    0.6900 H   0  0  0  0  0  0  0  0  0  0  0  0
    2.3870    1.2580   -0.8280 H   0  0  0  0  0  0  0  0  0  0  0  0
   -5.9830   -1.4620   -1.9560 H   0  0  0  0  0  0  0  0  0  0  0  0
   -3.6680   -0.9980   -2.6550 H   0  0  0  0  0  0  0  0  0  0  0  0
   -1.5890    1.6260   -1.1490 H   0  0  0  0  0  0  0  0  0  0  0  0
   -1.7940    0.5380   -2.5430 H   0  0  0  0  0  0  0  0  0  0  0  0
    5.3480   -1.9460    1.5510 H   0  0  0  0  0  0  0  0  0  0  0  0
    6.1230    0.3040    1.0540 H   0  0  0  0  0  0  0  0  0  0  0  0
    6.3170    3.5410   -0.0420 H   0  0  0  0  0  0  0  0  0  0  0  0
 19 20  2  0  0  0  0
  2 19  1  0  0  0  0
 22 23  2  0  0  0  0
 20 21  1  0  0  0  0
  2  3  2  0  0  0  0
  3 17  1  0  0  0  0
 21 22  1  0  0  0  0
 22 24  1  0  0  0  0
  2 18  1  0  0  0  0
 10 21  2  0  0  0  0
  4 17  2  0  0  0  0
 10 18  1  0  0  0  0
  5 18  2  0  0  0  0
  4  5  1  0  0  0  0
  1  5  1  0  0  0  0
  1  6  1  0  0  0  0
  6 15  1  0  0  0  0
  6 16  2  0  0  0  0
  7 15  1  0  0  0  0
  7  9  2  0  0  0  0
  7 14  1  0  0  0  0
  9 12  1  0  0  0  0
 13 14  2  0  0  0  0
 11 12  1  0  0  0  0
  8 12  2  0  0  0  0
  8 13  1  0  0  0  0
  1 25  1  0  0  0  0
  3 26  1  0  0  0  0
  4 27  1  0  0  0  0
  8 28  1  0  0  0  0
  9 29  1  0  0  0  0
 10 30  1  0  0  0  0
 13 31  1  0  0  0  0
 14 32  1  0  0  0  0
 15 33  1  0  0  0  0
 15 34  1  0  0  0  0
 19 35  1  0  0  0  0
 20 36  1  0  0  0  0
 24 37  1  0  0  0  0
M  END
> <OPENEYE_ISO_SMILES>
c1cc(cc(c1)Cl)CC(=O)Nc2cncc3c2cc(cc3)C(=O)O

> <OPENEYE_INCHI>
InChI=1S/C18H13ClN2O3/c19-14-3-1-2-11(6-14)7-17(22)21-16-10-20-9-13-5-4-12(18(23)24)8-15(13)16/h1-6,8-10H,7H2,(H,21,22)(H,23,24)

> <OPENEYE_INCHIKEY>
UKFWXTVAPKPVEE-UHFFFAOYSA-N

> <FORMULA>
C18H13ClN2O3

$$$$
