RK6
  -OEChem-05102419333D

 41 43  0     0  0  0  0  0  0999 V2000
   -0.2270    0.4670    0.5740 N   0  0  0  0  0  0  0  0  0  0  0  0
    2.6010    0.9380    0.4780 C   0  0  0  0  0  0  0  0  0  0  0  0
    2.0500   -0.3120    0.1600 C   0  0  0  0  0  0  0  0  0  0  0  0
    0.6590   -0.5480    0.2060 C   0  0  0  0  0  0  0  0  0  0  0  0
   -1.5080    0.4280    0.1560 C   0  0  0  0  0  0  0  0  0  0  0  0
   -2.4940    1.4520    0.6560 C   0  0  0  0  0  0  0  0  0  0  0  0
   -4.1870    1.7830   -1.1580 C   0  0  0  0  0  0  0  0  0  0  0  0
   -5.9860    0.1190    0.1220 C   0  0  0  0  0  0  0  0  0  0  0  0
    0.1940   -1.8060   -0.1210 C   0  0  0  0  0  0  0  0  0  0  0  0
    2.8990   -1.3840   -0.2210 C   0  0  0  0  0  0  0  0  0  0  0  0
   -7.1220   -0.9150    0.9320 Cl  0  0  0  0  0  0  0  0  0  0  0  0
   -6.3260    0.7100   -1.0820 C   0  0  0  0  0  0  0  0  0  0  0  0
   -5.4260    1.5420   -1.7220 C   0  0  0  0  0  0  0  0  0  0  0  0
   -4.7420    0.3530    0.6800 C   0  0  0  0  0  0  0  0  0  0  0  0
   -3.8450    1.1890    0.0420 C   0  0  0  0  0  0  0  0  0  0  0  0
   -1.8660   -0.4310   -0.6210 O   0  0  0  0  0  0  0  0  0  0  0  0
    1.0190   -2.7810   -0.4720 N   0  0  0  0  0  0  0  0  0  0  0  0
    2.3200   -2.6250   -0.5330 C   0  0  0  0  0  0  0  0  0  0  0  0
    3.9460    1.1210    0.4140 C   0  0  0  0  0  0  0  0  0  0  0  0
    4.2850   -1.1790   -0.2760 C   0  0  0  0  0  0  0  0  0  0  0  0
    4.8000    0.0680    0.0380 C   0  0  0  0  0  0  0  0  0  0  0  0
    6.2590    0.2940   -0.0170 C   0  0  0  0  0  0  0  0  0  0  0  0
    7.0020   -0.6140   -0.3360 O   0  0  0  0  0  0  0  0  0  0  0  0
    6.7660    1.5050    0.2870 N   0  0  0  0  0  0  0  0  0  0  0  0
    8.2130    1.7280    0.2330 C   0  0  0  0  0  0  0  0  0  0  0  0
    0.0790    1.1980    1.1330 H   0  0  0  0  0  0  0  0  0  0  0  0
    1.9570    1.7560    0.7670 H   0  0  0  0  0  0  0  0  0  0  0  0
   -2.5690    1.3860    1.7410 H   0  0  0  0  0  0  0  0  0  0  0  0
   -2.1560    2.4500    0.3750 H   0  0  0  0  0  0  0  0  0  0  0  0
   -3.4840    2.4330   -1.6580 H   0  0  0  0  0  0  0  0  0  0  0  0
   -0.8680   -1.9990   -0.0900 H   0  0  0  0  0  0  0  0  0  0  0  0
   -7.2970    0.5280   -1.5180 H   0  0  0  0  0  0  0  0  0  0  0  0
   -5.6910    2.0030   -2.6610 H   0  0  0  0  0  0  0  0  0  0  0  0
   -4.4770   -0.1080    1.6200 H   0  0  0  0  0  0  0  0  0  0  0  0
    2.9490   -3.4540   -0.8260 H   0  0  0  0  0  0  0  0  0  0  0  0
    4.3650    2.0870    0.6550 H   0  0  0  0  0  0  0  0  0  0  0  0
    4.9440   -1.9840   -0.5640 H   0  0  0  0  0  0  0  0  0  0  0  0
    6.1730    2.2280    0.5430 H   0  0  0  0  0  0  0  0  0  0  0  0
    8.7120    1.0510    0.9270 H   0  0  0  0  0  0  0  0  0  0  0  0
    8.5720    1.5380   -0.7790 H   0  0  0  0  0  0  0  0  0  0  0  0
    8.4320    2.7590    0.5090 H   0  0  0  0  0  0  0  0  0  0  0  0
 24 25  1  0  0  0  0
 22 24  1  0  0  0  0
 22 23  2  0  0  0  0
 21 22  1  0  0  0  0
 20 21  2  0  0  0  0
 10 20  1  0  0  0  0
 19 21  1  0  0  0  0
 10 18  2  0  0  0  0
 17 18  1  0  0  0  0
  3 10  1  0  0  0  0
  9 17  2  0  0  0  0
  2 19  2  0  0  0  0
  2  3  1  0  0  0  0
  3  4  2  0  0  0  0
  4  9  1  0  0  0  0
  1  4  1  0  0  0  0
  1  5  1  0  0  0  0
  5  6  1  0  0  0  0
  5 16  2  0  0  0  0
  6 15  1  0  0  0  0
 14 15  2  0  0  0  0
  7 15  1  0  0  0  0
  8 14  1  0  0  0  0
  7 13  2  0  0  0  0
  8 11  1  0  0  0  0
  8 12  2  0  0  0  0
 12 13  1  0  0  0  0
  1 26  1  0  0  0  0
  2 27  1  0  0  0  0
  6 28  1  0  0  0  0
  6 29  1  0  0  0  0
  7 30  1  0  0  0  0
  9 31  1  0  0  0  0
 12 32  1  0  0  0  0
 13 33  1  0  0  0  0
 14 34  1  0  0  0  0
 18 35  1  0  0  0  0
 19 36  1  0  0  0  0
 20 37  1  0  0  0  0
 24 38  1  0  0  0  0
 25 39  1  0  0  0  0
 25 40  1  0  0  0  0
 25 41  1  0  0  0  0
M  END
> <OPENEYE_ISO_SMILES>
CNC(=O)c1ccc2c(c1)cncc2NC(=O)Cc3cccc(c3)Cl

> <OPENEYE_INCHI>
InChI=1S/C19H16ClN3O2/c1-21-19(25)13-5-6-16-14(9-13)10-22-11-17(16)23-18(24)8-12-3-2-4-15(20)7-12/h2-7,9-11H,8H2,1H3,(H,21,25)(H,23,24)

> <OPENEYE_INCHIKEY>
YTZPJQXEGVHVLU-UHFFFAOYSA-N

> <FORMULA>
C19H16ClN3O2

$$$$
