RKR
  -OEChem-05102419333D

 42 44  0     0  0  0  0  0  0999 V2000
    1.5320    3.2260    0.1980 N   0  0  0  0  0  0  0  0  0  0  0  0
    4.7980    1.6270    0.4540 C   0  0  0  0  0  0  0  0  0  0  0  0
    3.4220    1.8210    0.2490 C   0  0  0  0  0  0  0  0  0  0  0  0
    2.8210    3.0800    0.3980 C   0  0  0  0  0  0  0  0  0  0  0  0
    0.7400    2.2210   -0.1470 C   0  0  0  0  0  0  0  0  0  0  0  0
    1.2280    0.9440   -0.3190 C   0  0  0  0  0  0  0  0  0  0  0  0
   -1.7780   -1.3090   -0.5370 C   0  0  0  0  0  0  0  0  0  0  0  0
   -4.6300   -1.3380    1.9370 C   0  0  0  0  0  0  0  0  0  0  0  0
   -5.3750   -0.2590   -0.0670 C   0  0  0  0  0  0  0  0  0  0  0  0
    2.6080    0.7180   -0.1200 C   0  0  0  0  0  0  0  0  0  0  0  0
   -6.6220    0.5460   -0.9670 Cl  0  0  0  0  0  0  0  0  0  0  0  0
   -5.6240   -0.6970    1.2210 C   0  0  0  0  0  0  0  0  0  0  0  0
   -3.3860   -1.5360    1.3680 C   0  0  0  0  0  0  0  0  0  0  0  0
   -4.1280   -0.4530   -0.6340 C   0  0  0  0  0  0  0  0  0  0  0  0
   -3.1350   -1.0940    0.0820 C   0  0  0  0  0  0  0  0  0  0  0  0
   -0.8910   -0.1310   -0.2280 C   0  0  0  0  0  0  0  0  0  0  0  0
   -1.3190    0.7930    0.4310 O   0  0  0  0  0  0  0  0  0  0  0  0
    0.3770   -0.1040   -0.6830 N   0  0  0  0  0  0  0  0  0  0  0  0
    5.3360    0.3880    0.2980 C   0  0  0  0  0  0  0  0  0  0  0  0
    3.1840   -0.5480   -0.2750 C   0  0  0  0  0  0  0  0  0  0  0  0
    4.5390   -0.7040   -0.0660 C   0  0  0  0  0  0  0  0  0  0  0  0
    5.1210   -1.9630   -0.2190 N   0  0  0  0  0  0  0  0  0  0  0  0
    4.3170   -3.0870   -0.7060 C   0  0  0  0  0  0  0  0  0  0  0  0
    6.5350   -2.1610    0.1080 C   0  0  0  0  0  0  0  0  0  0  0  0
    5.4260    2.4590    0.7340 H   0  0  0  0  0  0  0  0  0  0  0  0
    3.4220    3.9330    0.6770 H   0  0  0  0  0  0  0  0  0  0  0  0
   -0.3140    2.4080   -0.2960 H   0  0  0  0  0  0  0  0  0  0  0  0
   -1.3320   -2.2170   -0.1290 H   0  0  0  0  0  0  0  0  0  0  0  0
   -1.8840   -1.4110   -1.6170 H   0  0  0  0  0  0  0  0  0  0  0  0
   -4.8240   -1.6790    2.9430 H   0  0  0  0  0  0  0  0  0  0  0  0
   -6.5940   -0.5390    1.6670 H   0  0  0  0  0  0  0  0  0  0  0  0
   -2.6100   -2.0370    1.9280 H   0  0  0  0  0  0  0  0  0  0  0  0
   -3.9300   -0.1040   -1.6370 H   0  0  0  0  0  0  0  0  0  0  0  0
    0.6990   -0.8120   -1.2630 H   0  0  0  0  0  0  0  0  0  0  0  0
    6.3950    0.2440    0.4560 H   0  0  0  0  0  0  0  0  0  0  0  0
    2.5750   -1.3940   -0.5540 H   0  0  0  0  0  0  0  0  0  0  0  0
    4.3740   -3.1300   -1.7940 H   0  0  0  0  0  0  0  0  0  0  0  0
    4.7000   -4.0170   -0.2850 H   0  0  0  0  0  0  0  0  0  0  0  0
    3.2790   -2.9500   -0.4020 H   0  0  0  0  0  0  0  0  0  0  0  0
    6.9860   -1.2030    0.3660 H   0  0  0  0  0  0  0  0  0  0  0  0
    6.6200   -2.8420    0.9550 H   0  0  0  0  0  0  0  0  0  0  0  0
    7.0510   -2.5860   -0.7530 H   0  0  0  0  0  0  0  0  0  0  0  0
  2 19  2  0  0  0  0
  2  3  1  0  0  0  0
 19 21  1  0  0  0  0
  3  4  2  0  0  0  0
  1  4  1  0  0  0  0
  3 10  1  0  0  0  0
 21 22  1  0  0  0  0
 22 24  1  0  0  0  0
 22 23  1  0  0  0  0
 20 21  2  0  0  0  0
  1  5  2  0  0  0  0
 10 20  1  0  0  0  0
  6 10  2  0  0  0  0
  5  6  1  0  0  0  0
  6 18  1  0  0  0  0
 16 18  1  0  0  0  0
  7 16  1  0  0  0  0
 16 17  2  0  0  0  0
  7 15  1  0  0  0  0
 14 15  2  0  0  0  0
 13 15  1  0  0  0  0
  9 14  1  0  0  0  0
  8 13  2  0  0  0  0
  9 11  1  0  0  0  0
  9 12  2  0  0  0  0
  8 12  1  0  0  0  0
  2 25  1  0  0  0  0
  4 26  1  0  0  0  0
  5 27  1  0  0  0  0
  7 28  1  0  0  0  0
  7 29  1  0  0  0  0
  8 30  1  0  0  0  0
 12 31  1  0  0  0  0
 13 32  1  0  0  0  0
 14 33  1  0  0  0  0
 18 34  1  0  0  0  0
 19 35  1  0  0  0  0
 20 36  1  0  0  0  0
 23 37  1  0  0  0  0
 23 38  1  0  0  0  0
 23 39  1  0  0  0  0
 24 40  1  0  0  0  0
 24 41  1  0  0  0  0
 24 42  1  0  0  0  0
M  END
> <OPENEYE_ISO_SMILES>
CN(C)c1ccc2cncc(c2c1)NC(=O)Cc3cccc(c3)Cl

> <OPENEYE_INCHI>
InChI=1S/C19H18ClN3O/c1-23(2)16-7-6-14-11-21-12-18(17(14)10-16)22-19(24)9-13-4-3-5-15(20)8-13/h3-8,10-12H,9H2,1-2H3,(H,22,24)

> <OPENEYE_INCHIKEY>
YDRXFINTBCAEPL-UHFFFAOYSA-N

> <FORMULA>
C19H18ClN3O

$$$$
