RL0
  -OEChem-05102419333D

 45 47  0     1  0  0  0  0  0999 V2000
    0.1160    3.6490   -0.1470 N   0  0  0  0  0  0  0  0  0  0  0  0
    2.0990    2.4270   -0.4990 C   0  0  0  0  0  0  0  0  0  0  0  0
    1.3830    3.6340   -0.4910 C   0  0  0  0  0  0  0  0  0  0  0  0
   -0.5470    2.5560    0.2040 C   0  0  0  0  0  0  0  0  0  0  0  0
    0.0620    1.3200    0.2300 C   0  0  0  0  0  0  0  0  0  0  0  0
   -2.0000    0.1850    0.5680 C   0  0  0  0  0  0  0  0  0  0  0  0
   -4.2500   -0.7440    0.9260 C   0  0  0  0  0  0  0  0  0  0  0  0
   -6.9580   -0.2570    0.6470 C   0  0  0  0  0  0  0  0  0  0  0  0
   -4.9010   -1.1110   -0.2360 C   0  0  0  0  0  0  0  0  0  0  0  0
    2.1180    0.0180   -0.1310 C   0  0  0  0  0  0  0  0  0  0  0  0
    5.5250   -2.7660    0.7680 O   0  0  0  0  0  0  0  0  0  0  0  0
    5.5060   -1.3850    0.4310 S   0  0  0  0  0  0  0  0  0  0  0  0
    5.3750   -0.3880    1.4350 O   0  0  0  0  0  0  0  0  0  0  0  0
    6.8750   -0.9850   -0.6900 C   0  0  0  0  0  0  0  0  0  0  0  0
    4.1460   -1.2110   -0.4980 N   0  0  3  0  0  0  0  0  0  0  0  0
    3.6750   -2.3250   -1.3240 C   0  0  0  0  0  0  0  0  0  0  0  0
    3.4490   -0.0020   -0.4930 C   0  0  0  0  0  0  0  0  0  0  0  0
    1.4260    1.2330   -0.1290 C   0  0  0  0  0  0  0  0  0  0  0  0
    3.4550    2.3720   -0.8630 C   0  0  0  0  0  0  0  0  0  0  0  0
    4.1080    1.1790   -0.8580 C   0  0  0  0  0  0  0  0  0  0  0  0
   -0.6530    0.1780    0.6040 N   0  0  0  0  0  0  0  0  0  0  0  0
   -2.5900    1.1490    0.1260 O   0  0  0  0  0  0  0  0  0  0  0  0
   -2.7730   -1.0040    1.0770 C   0  0  0  0  0  0  0  0  0  0  0  0
   -6.2560   -0.8670   -0.3770 C   0  0  0  0  0  0  0  0  0  0  0  0
   -7.0740   -1.3280   -1.8370 Cl  0  0  0  0  0  0  0  0  0  0  0  0
   -6.3060    0.1080    1.8100 C   0  0  0  0  0  0  0  0  0  0  0  0
   -4.9530   -0.1340    1.9490 C   0  0  0  0  0  0  0  0  0  0  0  0
    1.8760    4.5540   -0.7690 H   0  0  0  0  0  0  0  0  0  0  0  0
   -1.5890    2.6370    0.4770 H   0  0  0  0  0  0  0  0  0  0  0  0
   -8.0160   -0.0670    0.5380 H   0  0  0  0  0  0  0  0  0  0  0  0
   -4.3520   -1.5870   -1.0360 H   0  0  0  0  0  0  0  0  0  0  0  0
    1.6160   -0.8970    0.1490 H   0  0  0  0  0  0  0  0  0  0  0  0
    6.8670   -1.6750   -1.5330 H   0  0  0  0  0  0  0  0  0  0  0  0
    6.7590    0.0360   -1.0540 H   0  0  0  0  0  0  0  0  0  0  0  0
    7.8200   -1.0750   -0.1550 H   0  0  0  0  0  0  0  0  0  0  0  0
    2.9810   -2.9370   -0.7470 H   0  0  0  0  0  0  0  0  0  0  0  0
    3.1680   -1.9340   -2.2060 H   0  0  0  0  0  0  0  0  0  0  0  0
    4.5260   -2.9330   -1.6330 H   0  0  0  0  0  0  0  0  0  0  0  0
    3.9770    3.2740   -1.1460 H   0  0  0  0  0  0  0  0  0  0  0  0
    5.1500    1.1420   -1.1380 H   0  0  0  0  0  0  0  0  0  0  0  0
   -0.1790   -0.6190    0.8880 H   0  0  0  0  0  0  0  0  0  0  0  0
   -2.5000   -1.8880    0.5020 H   0  0  0  0  0  0  0  0  0  0  0  0
   -2.5390   -1.1660    2.1290 H   0  0  0  0  0  0  0  0  0  0  0  0
   -6.8550    0.5840    2.6090 H   0  0  0  0  0  0  0  0  0  0  0  0
   -4.4440    0.1520    2.8580 H   0  0  0  0  0  0  0  0  0  0  0  0
 12 14  1  0  0  0  0
 11 12  2  0  0  0  0
 19 20  2  0  0  0  0
  2 19  1  0  0  0  0
  2  3  2  0  0  0  0
  1  3  1  0  0  0  0
 17 20  1  0  0  0  0
 12 13  2  0  0  0  0
 12 15  1  0  0  0  0
  2 18  1  0  0  0  0
  1  4  2  0  0  0  0
 10 17  2  0  0  0  0
 15 17  1  0  0  0  0
 10 18  1  0  0  0  0
  5 18  2  0  0  0  0
  4  5  1  0  0  0  0
  5 21  1  0  0  0  0
 15 16  1  0  0  0  0
  6 21  1  0  0  0  0
  6 23  1  0  0  0  0
  6 22  2  0  0  0  0
  7 23  1  0  0  0  0
  7  9  2  0  0  0  0
  7 27  1  0  0  0  0
  9 24  1  0  0  0  0
 26 27  2  0  0  0  0
 24 25  1  0  0  0  0
  8 24  2  0  0  0  0
  8 26  1  0  0  0  0
  3 28  1  0  0  0  0
  4 29  1  0  0  0  0
  8 30  1  0  0  0  0
  9 31  1  0  0  0  0
 10 32  1  0  0  0  0
 14 33  1  0  0  0  0
 14 34  1  0  0  0  0
 14 35  1  0  0  0  0
 16 36  1  0  0  0  0
 16 37  1  0  0  0  0
 16 38  1  0  0  0  0
 19 39  1  0  0  0  0
 20 40  1  0  0  0  0
 21 41  1  0  0  0  0
 23 42  1  0  0  0  0
 23 43  1  0  0  0  0
 26 44  1  0  0  0  0
 27 45  1  0  0  0  0
M  END
> <OPENEYE_ISO_SMILES>
CN(c1ccc2cncc(c2c1)NC(=O)Cc3cccc(c3)Cl)S(=O)(=O)C

> <OPENEYE_INCHI>
InChI=1S/C19H18ClN3O3S/c1-23(27(2,25)26)16-7-6-14-11-21-12-18(17(14)10-16)22-19(24)9-13-4-3-5-15(20)8-13/h3-8,10-12H,9H2,1-2H3,(H,22,24)

> <OPENEYE_INCHIKEY>
NWQAGGFPSKOROJ-UHFFFAOYSA-N

> <FORMULA>
C19H18ClN3O3S

$$$$
