RL8
  -OEChem-05102419333D

 41 43  0     0  0  0  0  0  0999 V2000
    1.1600    3.4610   -0.4500 N   0  0  0  0  0  0  0  0  0  0  0  0
    4.4010    1.8390   -0.8520 C   0  0  0  0  0  0  0  0  0  0  0  0
    3.0460    2.0520   -0.5410 C   0  0  0  0  0  0  0  0  0  0  0  0
    2.4270    3.2930   -0.7510 C   0  0  0  0  0  0  0  0  0  0  0  0
    0.4080    2.4960    0.0560 C   0  0  0  0  0  0  0  0  0  0  0  0
    0.9180    1.2370    0.3030 C   0  0  0  0  0  0  0  0  0  0  0  0
   -2.1080   -0.7360    1.3470 C   0  0  0  0  0  0  0  0  0  0  0  0
   -5.6260    0.6290    1.4580 C   0  0  0  0  0  0  0  0  0  0  0  0
   -5.4340   -0.8210   -0.4390 C   0  0  0  0  0  0  0  0  0  0  0  0
    2.2760    0.9900    0.0010 C   0  0  0  0  0  0  0  0  0  0  0  0
   -6.1420   -1.5720   -1.8340 Cl  0  0  0  0  0  0  0  0  0  0  0  0
   -6.1900    0.0310    0.3470 C   0  0  0  0  0  0  0  0  0  0  0  0
   -4.3060    0.3800    1.7820 C   0  0  0  0  0  0  0  0  0  0  0  0
   -4.1110   -1.0650   -0.1170 C   0  0  0  0  0  0  0  0  0  0  0  0
   -3.5480   -0.4660    0.9940 C   0  0  0  0  0  0  0  0  0  0  0  0
   -1.2250    0.2780    0.6650 C   0  0  0  0  0  0  0  0  0  0  0  0
   -1.7170    1.1350   -0.0370 O   0  0  0  0  0  0  0  0  0  0  0  0
    0.1110    0.2320    0.8370 N   0  0  0  0  0  0  0  0  0  0  0  0
    4.9620    0.6210   -0.6350 C   0  0  0  0  0  0  0  0  0  0  0  0
    2.8690   -0.2580    0.2190 C   0  0  0  0  0  0  0  0  0  0  0  0
    4.2070   -0.4380   -0.0980 C   0  0  0  0  0  0  0  0  0  0  0  0
    4.8440   -1.7520    0.1280 C   0  0  0  0  0  0  0  0  0  0  0  0
    4.1960   -2.6700    0.5920 O   0  0  0  0  0  0  0  0  0  0  0  0
    6.1440   -1.9320   -0.1790 N   0  0  0  0  0  0  0  0  0  0  0  0
    6.7750   -3.2350    0.0450 C   0  0  0  0  0  0  0  0  0  0  0  0
    4.9940    2.6410   -1.2650 H   0  0  0  0  0  0  0  0  0  0  0  0
    2.9950    4.1150   -1.1630 H   0  0  0  0  0  0  0  0  0  0  0  0
   -0.6280    2.6990    0.2820 H   0  0  0  0  0  0  0  0  0  0  0  0
   -1.9790   -0.6640    2.4260 H   0  0  0  0  0  0  0  0  0  0  0  0
   -1.8340   -1.7370    1.0140 H   0  0  0  0  0  0  0  0  0  0  0  0
   -6.2160    1.2940    2.0710 H   0  0  0  0  0  0  0  0  0  0  0  0
   -7.2210    0.2280    0.0920 H   0  0  0  0  0  0  0  0  0  0  0  0
   -3.8650    0.8480    2.6500 H   0  0  0  0  0  0  0  0  0  0  0  0
   -3.5180   -1.7230   -0.7350 H   0  0  0  0  0  0  0  0  0  0  0  0
    0.5110   -0.4990    1.3330 H   0  0  0  0  0  0  0  0  0  0  0  0
    6.0020    0.4630   -0.8760 H   0  0  0  0  0  0  0  0  0  0  0  0
    2.2920   -1.0720    0.6310 H   0  0  0  0  0  0  0  0  0  0  0  0
    6.6610   -1.2000   -0.5490 H   0  0  0  0  0  0  0  0  0  0  0  0
    6.7170   -3.4890    1.1040 H   0  0  0  0  0  0  0  0  0  0  0  0
    6.2580   -3.9950   -0.5400 H   0  0  0  0  0  0  0  0  0  0  0  0
    7.8210   -3.1890   -0.2610 H   0  0  0  0  0  0  0  0  0  0  0  0
 24 25  1  0  0  0  0
 22 24  1  0  0  0  0
  2 19  2  0  0  0  0
 19 21  1  0  0  0  0
  2  3  1  0  0  0  0
 21 22  1  0  0  0  0
 22 23  2  0  0  0  0
 20 21  2  0  0  0  0
  3  4  2  0  0  0  0
  1  4  1  0  0  0  0
  3 10  1  0  0  0  0
  1  5  2  0  0  0  0
 10 20  1  0  0  0  0
  6 10  2  0  0  0  0
  5  6  1  0  0  0  0
  6 18  1  0  0  0  0
 16 18  1  0  0  0  0
  7 16  1  0  0  0  0
 16 17  2  0  0  0  0
  7 15  1  0  0  0  0
 14 15  2  0  0  0  0
 13 15  1  0  0  0  0
  9 14  1  0  0  0  0
  8 13  2  0  0  0  0
  9 11  1  0  0  0  0
  9 12  2  0  0  0  0
  8 12  1  0  0  0  0
  2 26  1  0  0  0  0
  4 27  1  0  0  0  0
  5 28  1  0  0  0  0
  7 29  1  0  0  0  0
  7 30  1  0  0  0  0
  8 31  1  0  0  0  0
 12 32  1  0  0  0  0
 13 33  1  0  0  0  0
 14 34  1  0  0  0  0
 18 35  1  0  0  0  0
 19 36  1  0  0  0  0
 20 37  1  0  0  0  0
 24 38  1  0  0  0  0
 25 39  1  0  0  0  0
 25 40  1  0  0  0  0
 25 41  1  0  0  0  0
M  END
> <OPENEYE_ISO_SMILES>
CNC(=O)c1ccc2cncc(c2c1)NC(=O)Cc3cccc(c3)Cl

> <OPENEYE_INCHI>
InChI=1S/C19H16ClN3O2/c1-21-19(25)13-5-6-14-10-22-11-17(16(14)9-13)23-18(24)8-12-3-2-4-15(20)7-12/h2-7,9-11H,8H2,1H3,(H,21,25)(H,23,24)

> <OPENEYE_INCHIKEY>
MQGFIRADDQPUFN-UHFFFAOYSA-N

> <FORMULA>
C19H16ClN3O2

$$$$
