RLH
  -OEChem-05102419333D

 53 56  0     0  0  0  0  0  0999 V2000
   -0.4470    3.2080   -1.0450 N   0  0  0  0  0  0  0  0  0  0  0  0
   -5.2190   -0.3790    1.1470 C   0  0  0  0  0  0  0  0  0  0  0  0
   -3.7960   -0.4910    1.6300 C   0  0  0  0  0  0  0  0  0  0  0  0
   -2.9170    0.4270    0.8220 C   0  0  0  0  0  0  0  0  0  0  0  0
   -0.7660    1.2740    0.2700 C   0  0  0  0  0  0  0  0  0  0  0  0
   -1.2210    2.4550   -0.2760 C   0  0  0  0  0  0  0  0  0  0  0  0
    1.3550    1.7060   -0.8330 C   0  0  0  0  0  0  0  0  0  0  0  0
    4.9150   -1.4250   -0.3190 C   0  0  0  0  0  0  0  0  0  0  0  0
    8.5810   -0.6820   -0.7420 C   0  0  0  0  0  0  0  0  0  0  0  0
    8.7640   -0.3080    1.6440 C   0  0  0  0  0  0  0  0  0  0  0  0
    1.1000   -0.3150    0.5090 C   0  0  0  0  0  0  0  0  0  0  0  0
    0.5590    0.8710   -0.0060 C   0  0  0  0  0  0  0  0  0  0  0  0
   -5.6740   -1.2080    0.1390 C   0  0  0  0  0  0  0  0  0  0  0  0
   -3.3980    1.1060   -0.0610 O   0  0  0  0  0  0  0  0  0  0  0  0
   -6.0710    0.5500    1.7150 C   0  0  0  0  0  0  0  0  0  0  0  0
   -7.3780    0.6490    1.2760 C   0  0  0  0  0  0  0  0  0  0  0  0
   -7.8340   -0.1800    0.2690 C   0  0  0  0  0  0  0  0  0  0  0  0
   -6.9820   -1.1090   -0.3010 C   0  0  0  0  0  0  0  0  0  0  0  0
   -7.5540   -2.1500   -1.5670 Cl  0  0  0  0  0  0  0  0  0  0  0  0
   -1.5960    0.4940    1.0790 N   0  0  0  0  0  0  0  0  0  0  0  0
    0.7910    2.8890   -1.3380 C   0  0  0  0  0  0  0  0  0  0  0  0
    2.3850   -0.6530    0.2080 C   0  0  0  0  0  0  0  0  0  0  0  0
    3.1730    0.1670   -0.6040 C   0  0  0  0  0  0  0  0  0  0  0  0
    2.6750    1.3290   -1.1230 C   0  0  0  0  0  0  0  0  0  0  0  0
    4.4510   -0.1980   -0.8860 O   0  0  0  0  0  0  0  0  0  0  0  0
    6.3640   -1.6680   -0.7430 C   0  0  0  0  0  0  0  0  0  0  0  0
    7.2240   -0.6240   -0.1680 N   0  0  0  0  0  0  0  0  0  0  0  0
    7.3270   -0.7720    1.2990 C   0  0  0  0  0  0  0  0  0  0  0  0
    9.5670   -0.8500    0.4330 C   0  0  0  0  0  0  0  0  0  0  0  0
   -3.7470   -0.2090    2.6820 H   0  0  0  0  0  0  0  0  0  0  0  0
   -3.4530   -1.5190    1.5130 H   0  0  0  0  0  0  0  0  0  0  0  0
   -2.2320    2.7750   -0.0730 H   0  0  0  0  0  0  0  0  0  0  0  0
    4.8590   -1.3670    0.7680 H   0  0  0  0  0  0  0  0  0  0  0  0
    4.2910   -2.2470   -0.6710 H   0  0  0  0  0  0  0  0  0  0  0  0
    8.6620   -1.5330   -1.4180 H   0  0  0  0  0  0  0  0  0  0  0  0
    8.7960    0.2420   -1.2780 H   0  0  0  0  0  0  0  0  0  0  0  0
    8.8200    0.7800    1.6960 H   0  0  0  0  0  0  0  0  0  0  0  0
    9.1070   -0.7590    2.5750 H   0  0  0  0  0  0  0  0  0  0  0  0
    0.5030   -0.9560    1.1400 H   0  0  0  0  0  0  0  0  0  0  0  0
   -5.0090   -1.9340   -0.3050 H   0  0  0  0  0  0  0  0  0  0  0  0
   -5.7150    1.1980    2.5020 H   0  0  0  0  0  0  0  0  0  0  0  0
   -8.0430    1.3750    1.7210 H   0  0  0  0  0  0  0  0  0  0  0  0
   -8.8560   -0.1020   -0.0740 H   0  0  0  0  0  0  0  0  0  0  0  0
   -1.2210    0.0000    1.8250 H   0  0  0  0  0  0  0  0  0  0  0  0
    1.3790    3.5390   -1.9700 H   0  0  0  0  0  0  0  0  0  0  0  0
    2.8010   -1.5670    0.6060 H   0  0  0  0  0  0  0  0  0  0  0  0
    3.2930    1.9540   -1.7510 H   0  0  0  0  0  0  0  0  0  0  0  0
    6.6890   -2.6450   -0.3850 H   0  0  0  0  0  0  0  0  0  0  0  0
    6.4350   -1.6370   -1.8310 H   0  0  0  0  0  0  0  0  0  0  0  0
    7.1860   -1.8140    1.5870 H   0  0  0  0  0  0  0  0  0  0  0  0
    6.5930   -0.1380    1.7970 H   0  0  0  0  0  0  0  0  0  0  0  0
    9.8200   -1.9000    0.5770 H   0  0  0  0  0  0  0  0  0  0  0  0
   10.4660   -0.2550    0.2700 H   0  0  0  0  0  0  0  0  0  0  0  0
  8 25  1  0  0  0  0
 23 25  1  0  0  0  0
  8 26  1  0  0  0  0
 23 24  2  0  0  0  0
  7 24  1  0  0  0  0
  1 21  2  0  0  0  0
  7 21  1  0  0  0  0
 22 23  1  0  0  0  0
  1  6  1  0  0  0  0
  7 12  2  0  0  0  0
 11 22  2  0  0  0  0
  5  6  2  0  0  0  0
 26 27  1  0  0  0  0
 11 12  1  0  0  0  0
  5 12  1  0  0  0  0
  5 20  1  0  0  0  0
  4 20  1  0  0  0  0
  9 27  1  0  0  0  0
  9 29  1  0  0  0  0
 27 28  1  0  0  0  0
  3  4  1  0  0  0  0
  4 14  2  0  0  0  0
  2  3  1  0  0  0  0
 10 28  1  0  0  0  0
 10 29  1  0  0  0  0
  2 13  2  0  0  0  0
  2 15  1  0  0  0  0
 13 18  1  0  0  0  0
 15 16  2  0  0  0  0
 18 19  1  0  0  0  0
 17 18  2  0  0  0  0
 16 17  1  0  0  0  0
  3 30  1  0  0  0  0
  3 31  1  0  0  0  0
  6 32  1  0  0  0  0
  8 33  1  0  0  0  0
  8 34  1  0  0  0  0
  9 35  1  0  0  0  0
  9 36  1  0  0  0  0
 10 37  1  0  0  0  0
 10 38  1  0  0  0  0
 11 39  1  0  0  0  0
 13 40  1  0  0  0  0
 15 41  1  0  0  0  0
 16 42  1  0  0  0  0
 17 43  1  0  0  0  0
 20 44  1  0  0  0  0
 21 45  1  0  0  0  0
 22 46  1  0  0  0  0
 24 47  1  0  0  0  0
 26 48  1  0  0  0  0
 26 49  1  0  0  0  0
 28 50  1  0  0  0  0
 28 51  1  0  0  0  0
 29 52  1  0  0  0  0
 29 53  1  0  0  0  0
M  END
> <OPENEYE_ISO_SMILES>
c1cc(cc(c1)Cl)CC(=O)Nc2cncc3c2ccc(c3)OCCN4CCCC4

> <OPENEYE_INCHI>
InChI=1S/C23H24ClN3O2/c24-19-5-3-4-17(12-19)13-23(28)26-22-16-25-15-18-14-20(6-7-21(18)22)29-11-10-27-8-1-2-9-27/h3-7,12,14-16H,1-2,8-11,13H2,(H,26,28)

> <OPENEYE_INCHIKEY>
MIPAPSMIEZDAGL-UHFFFAOYSA-N

> <FORMULA>
C23H24ClN3O2

$$$$
