RM3
  -OEChem-05102419333D

 42 44  0     0  0  0  0  0  0999 V2000
    0.0890   -0.4600   -1.1750 N   0  0  0  0  0  0  0  0  0  0  0  0
    2.6960    0.7260   -0.9960 C   0  0  0  0  0  0  0  0  0  0  0  0
    2.3460   -0.4040   -0.2460 C   0  0  0  0  0  0  0  0  0  0  0  0
    1.0650   -0.9930   -0.3300 C   0  0  0  0  0  0  0  0  0  0  0  0
   -1.2080   -0.4930   -0.8110 C   0  0  0  0  0  0  0  0  0  0  0  0
   -2.2500    0.1770   -1.6700 C   0  0  0  0  0  0  0  0  0  0  0  0
   -4.3790   -1.1050   -1.3730 C   0  0  0  0  0  0  0  0  0  0  0  0
   -5.3380    0.7680    0.4210 C   0  0  0  0  0  0  0  0  0  0  0  0
    0.8000   -2.1050    0.4410 C   0  0  0  0  0  0  0  0  0  0  0  0
    3.2960   -0.9910    0.6310 C   0  0  0  0  0  0  0  0  0  0  0  0
   -5.9450    1.9510    1.5360 Cl  0  0  0  0  0  0  0  0  0  0  0  0
   -6.1060   -0.3360    0.0960 C   0  0  0  0  0  0  0  0  0  0  0  0
   -5.6260   -1.2720   -0.8000 C   0  0  0  0  0  0  0  0  0  0  0  0
   -4.0850    0.9290   -0.1450 C   0  0  0  0  0  0  0  0  0  0  0  0
   -3.6090   -0.0040   -1.0460 C   0  0  0  0  0  0  0  0  0  0  0  0
   -1.5380   -1.0610    0.2090 O   0  0  0  0  0  0  0  0  0  0  0  0
    1.7130   -2.6240    1.2480 N   0  0  0  0  0  0  0  0  0  0  0  0
    2.9210   -2.1240    1.3720 C   0  0  0  0  0  0  0  0  0  0  0  0
    3.9460    1.2520   -0.8830 C   0  0  0  0  0  0  0  0  0  0  0  0
    4.5770   -0.4280    0.7340 C   0  0  0  0  0  0  0  0  0  0  0  0
    4.8910    0.6810   -0.0220 C   0  0  0  0  0  0  0  0  0  0  0  0
    6.1640    1.2450    0.0770 N   0  0  0  0  0  0  0  0  0  0  0  0
    6.4730    2.4860   -0.6370 C   0  0  0  0  0  0  0  0  0  0  0  0
    7.1920    0.5950    0.8940 C   0  0  0  0  0  0  0  0  0  0  0  0
    0.3450   -0.0630   -2.0220 H   0  0  0  0  0  0  0  0  0  0  0  0
    1.9770    1.1770   -1.6640 H   0  0  0  0  0  0  0  0  0  0  0  0
   -2.0250    1.2400   -1.7500 H   0  0  0  0  0  0  0  0  0  0  0  0
   -2.2430   -0.2710   -2.6640 H   0  0  0  0  0  0  0  0  0  0  0  0
   -4.0040   -1.8370   -2.0740 H   0  0  0  0  0  0  0  0  0  0  0  0
   -0.1760   -2.5640    0.3860 H   0  0  0  0  0  0  0  0  0  0  0  0
   -7.0830   -0.4620    0.5370 H   0  0  0  0  0  0  0  0  0  0  0  0
   -6.2250   -2.1340   -1.0540 H   0  0  0  0  0  0  0  0  0  0  0  0
   -3.4850    1.7910    0.1080 H   0  0  0  0  0  0  0  0  0  0  0  0
    3.6280   -2.5860    2.0440 H   0  0  0  0  0  0  0  0  0  0  0  0
    4.2140    2.1200   -1.4660 H   0  0  0  0  0  0  0  0  0  0  0  0
    5.3110   -0.8630    1.3960 H   0  0  0  0  0  0  0  0  0  0  0  0
    6.2450    3.3390    0.0020 H   0  0  0  0  0  0  0  0  0  0  0  0
    7.5310    2.5010   -0.8990 H   0  0  0  0  0  0  0  0  0  0  0  0
    5.8720    2.5420   -1.5450 H   0  0  0  0  0  0  0  0  0  0  0  0
    6.7560   -0.2580    1.4150 H   0  0  0  0  0  0  0  0  0  0  0  0
    8.0040    0.2530    0.2530 H   0  0  0  0  0  0  0  0  0  0  0  0
    7.5800    1.3060    1.6230 H   0  0  0  0  0  0  0  0  0  0  0  0
 22 23  1  0  0  0  0
 21 22  1  0  0  0  0
 22 24  1  0  0  0  0
 20 21  2  0  0  0  0
 10 20  1  0  0  0  0
 19 21  1  0  0  0  0
 10 18  2  0  0  0  0
 17 18  1  0  0  0  0
  3 10  1  0  0  0  0
  9 17  2  0  0  0  0
  2 19  2  0  0  0  0
  2  3  1  0  0  0  0
  3  4  2  0  0  0  0
  4  9  1  0  0  0  0
  1  4  1  0  0  0  0
  1  5  1  0  0  0  0
  5  6  1  0  0  0  0
  5 16  2  0  0  0  0
  6 15  1  0  0  0  0
 14 15  2  0  0  0  0
  7 15  1  0  0  0  0
  8 14  1  0  0  0  0
  7 13  2  0  0  0  0
  8 11  1  0  0  0  0
  8 12  2  0  0  0  0
 12 13  1  0  0  0  0
  1 25  1  0  0  0  0
  2 26  1  0  0  0  0
  6 27  1  0  0  0  0
  6 28  1  0  0  0  0
  7 29  1  0  0  0  0
  9 30  1  0  0  0  0
 12 31  1  0  0  0  0
 13 32  1  0  0  0  0
 14 33  1  0  0  0  0
 18 34  1  0  0  0  0
 19 35  1  0  0  0  0
 20 36  1  0  0  0  0
 23 37  1  0  0  0  0
 23 38  1  0  0  0  0
 23 39  1  0  0  0  0
 24 40  1  0  0  0  0
 24 41  1  0  0  0  0
 24 42  1  0  0  0  0
M  END
> <OPENEYE_ISO_SMILES>
CN(C)c1ccc2c(c1)cncc2NC(=O)Cc3cccc(c3)Cl

> <OPENEYE_INCHI>
InChI=1S/C19H18ClN3O/c1-23(2)16-6-7-17-14(10-16)11-21-12-18(17)22-19(24)9-13-4-3-5-15(20)8-13/h3-8,10-12H,9H2,1-2H3,(H,22,24)

> <OPENEYE_INCHIKEY>
VLCYSYPHYNBYLW-UHFFFAOYSA-N

> <FORMULA>
C19H18ClN3O

$$$$
