RMI
  -OEChem-05102419333D

 49 51  0     0  0  0  0  0  0999 V2000
   -0.9840    0.1830    0.7400 N   0  0  0  0  0  0  0  0  0  0  0  0
    4.0210   -0.4890    0.3240 C   0  0  0  0  0  0  0  0  0  0  0  0
    3.2320    0.5340    0.8590 C   0  0  0  0  0  0  0  0  0  0  0  0
    1.8730    0.4520    0.8400 C   0  0  0  0  0  0  0  0  0  0  0  0
    1.2550   -0.6700    0.2720 C   0  0  0  0  0  0  0  0  0  0  0  0
   -0.1490   -0.8080    0.2200 C   0  0  0  0  0  0  0  0  0  0  0  0
   -3.1850    1.2990    0.9210 C   0  0  0  0  0  0  0  0  0  0  0  0
   -5.9800    2.0430   -1.5050 C   0  0  0  0  0  0  0  0  0  0  0  0
   -6.7230    0.3430    0.0100 C   0  0  0  0  0  0  0  0  0  0  0  0
   -0.6770   -1.9450   -0.3560 C   0  0  0  0  0  0  0  0  0  0  0  0
    3.4500   -1.5980   -0.2350 C   0  0  0  0  0  0  0  0  0  0  0  0
   -7.9550   -0.7520    0.5540 Cl  0  0  0  0  0  0  0  0  0  0  0  0
   -6.9620    1.1710   -1.0720 C   0  0  0  0  0  0  0  0  0  0  0  0
   -4.7590    2.0850   -0.8600 C   0  0  0  0  0  0  0  0  0  0  0  0
   -5.4970    0.3810    0.6520 C   0  0  0  0  0  0  0  0  0  0  0  0
   -4.5170    1.2530    0.2190 C   0  0  0  0  0  0  0  0  0  0  0  0
   -2.2430    0.3160    0.2750 C   0  0  0  0  0  0  0  0  0  0  0  0
   -2.6160   -0.3550   -0.6640 O   0  0  0  0  0  0  0  0  0  0  0  0
    0.1010   -2.8960   -0.8540 N   0  0  0  0  0  0  0  0  0  0  0  0
    1.4110   -2.8260   -0.8360 C   0  0  0  0  0  0  0  0  0  0  0  0
    2.0520   -1.7100   -0.2730 C   0  0  0  0  0  0  0  0  0  0  0  0
    5.3750   -0.3760    0.3530 O   0  0  0  0  0  0  0  0  0  0  0  0
    5.9140    0.8090    0.9420 C   0  0  0  0  0  0  0  0  0  0  0  0
    7.4420    0.7580    0.8830 C   0  0  0  0  0  0  0  0  0  0  0  0
    7.8800    0.7870   -0.5180 N   0  0  0  0  0  0  0  0  0  0  0  0
    7.5490    2.0730   -1.1470 C   0  0  0  0  0  0  0  0  0  0  0  0
    9.3170    0.5020   -0.6270 C   0  0  0  0  0  0  0  0  0  0  0  0
   -0.6610    0.7730    1.4380 H   0  0  0  0  0  0  0  0  0  0  0  0
    3.7080    1.4000    1.2950 H   0  0  0  0  0  0  0  0  0  0  0  0
    1.2750    1.2490    1.2570 H   0  0  0  0  0  0  0  0  0  0  0  0
   -2.7690    2.3030    0.8470 H   0  0  0  0  0  0  0  0  0  0  0  0
   -3.3180    1.0370    1.9710 H   0  0  0  0  0  0  0  0  0  0  0  0
   -6.1660    2.6890   -2.3500 H   0  0  0  0  0  0  0  0  0  0  0  0
   -1.7490   -2.0630   -0.4030 H   0  0  0  0  0  0  0  0  0  0  0  0
    4.0700   -2.3810   -0.6460 H   0  0  0  0  0  0  0  0  0  0  0  0
   -7.9150    1.1360   -1.5790 H   0  0  0  0  0  0  0  0  0  0  0  0
   -3.9920    2.7660   -1.1980 H   0  0  0  0  0  0  0  0  0  0  0  0
   -5.3080   -0.2700    1.4920 H   0  0  0  0  0  0  0  0  0  0  0  0
    1.9980   -3.6290   -1.2560 H   0  0  0  0  0  0  0  0  0  0  0  0
    5.5590    1.6820    0.3930 H   0  0  0  0  0  0  0  0  0  0  0  0
    5.5920    0.8770    1.9810 H   0  0  0  0  0  0  0  0  0  0  0  0
    7.8550    1.6180    1.4110 H   0  0  0  0  0  0  0  0  0  0  0  0
    7.7930   -0.1600    1.3550 H   0  0  0  0  0  0  0  0  0  0  0  0
    8.0480    2.8790   -0.6080 H   0  0  0  0  0  0  0  0  0  0  0  0
    7.8850    2.0670   -2.1840 H   0  0  0  0  0  0  0  0  0  0  0  0
    6.4710    2.2260   -1.1140 H   0  0  0  0  0  0  0  0  0  0  0  0
    9.5230   -0.4870   -0.2170 H   0  0  0  0  0  0  0  0  0  0  0  0
    9.6150    0.5290   -1.6750 H   0  0  0  0  0  0  0  0  0  0  0  0
    9.8790    1.2510   -0.0700 H   0  0  0  0  0  0  0  0  0  0  0  0
 23 24  1  0  0  0  0
 24 25  1  0  0  0  0
 22 23  1  0  0  0  0
 11 21  2  0  0  0  0
  2 11  1  0  0  0  0
 20 21  1  0  0  0  0
 19 20  2  0  0  0  0
  2 22  1  0  0  0  0
  5 21  1  0  0  0  0
 10 19  1  0  0  0  0
  2  3  2  0  0  0  0
  5  6  1  0  0  0  0
  4  5  2  0  0  0  0
  6 10  2  0  0  0  0
  3  4  1  0  0  0  0
  1  6  1  0  0  0  0
 25 27  1  0  0  0  0
 25 26  1  0  0  0  0
  1 17  1  0  0  0  0
  7 17  1  0  0  0  0
 17 18  2  0  0  0  0
  7 16  1  0  0  0  0
 15 16  2  0  0  0  0
 14 16  1  0  0  0  0
  9 15  1  0  0  0  0
  8 14  2  0  0  0  0
  9 12  1  0  0  0  0
  9 13  2  0  0  0  0
  8 13  1  0  0  0  0
  1 28  1  0  0  0  0
  3 29  1  0  0  0  0
  4 30  1  0  0  0  0
  7 31  1  0  0  0  0
  7 32  1  0  0  0  0
  8 33  1  0  0  0  0
 10 34  1  0  0  0  0
 11 35  1  0  0  0  0
 13 36  1  0  0  0  0
 14 37  1  0  0  0  0
 15 38  1  0  0  0  0
 20 39  1  0  0  0  0
 23 40  1  0  0  0  0
 23 41  1  0  0  0  0
 24 42  1  0  0  0  0
 24 43  1  0  0  0  0
 26 44  1  0  0  0  0
 26 45  1  0  0  0  0
 26 46  1  0  0  0  0
 27 47  1  0  0  0  0
 27 48  1  0  0  0  0
 27 49  1  0  0  0  0
M  END
> <OPENEYE_ISO_SMILES>
CN(C)CCOc1ccc2c(c1)cncc2NC(=O)Cc3cccc(c3)Cl

> <OPENEYE_INCHI>
InChI=1S/C21H22ClN3O2/c1-25(2)8-9-27-18-6-7-19-16(12-18)13-23-14-20(19)24-21(26)11-15-4-3-5-17(22)10-15/h3-7,10,12-14H,8-9,11H2,1-2H3,(H,24,26)

> <OPENEYE_INCHIKEY>
LASXIBJOIXVTDT-UHFFFAOYSA-N

> <FORMULA>
C21H22ClN3O2

$$$$
