RN0
  -OEChem-05102419333D

 41 43  0     0  0  0  0  0  0999 V2000
   -0.3350   -0.7010   -0.9690 N   0  0  0  0  0  0  0  0  0  0  0  0
    2.5850   -2.3870    0.6020 C   0  0  0  0  0  0  0  0  0  0  0  0
    1.9120   -3.5050    1.1210 C   0  0  0  0  0  0  0  0  0  0  0  0
   -0.1120   -2.7530    0.2800 C   0  0  0  0  0  0  0  0  0  0  0  0
    0.4510   -1.6240   -0.2740 C   0  0  0  0  0  0  0  0  0  0  0  0
   -1.6540   -0.6060   -0.7060 C   0  0  0  0  0  0  0  0  0  0  0  0
   -3.9460    0.2240   -1.0440 C   0  0  0  0  0  0  0  0  0  0  0  0
   -6.5540    0.0860   -0.1350 C   0  0  0  0  0  0  0  0  0  0  0  0
   -4.3810    1.0930   -0.0620 C   0  0  0  0  0  0  0  0  0  0  0  0
    2.4910   -0.2990   -0.6500 C   0  0  0  0  0  0  0  0  0  0  0  0
   -6.2340    2.1170    1.6260 Cl  0  0  0  0  0  0  0  0  0  0  0  0
   -5.6860    1.0250    0.3930 C   0  0  0  0  0  0  0  0  0  0  0  0
   -6.1190   -0.7790   -1.1220 C   0  0  0  0  0  0  0  0  0  0  0  0
   -4.8150   -0.7110   -1.5750 C   0  0  0  0  0  0  0  0  0  0  0  0
   -2.5250    0.2980   -1.5400 C   0  0  0  0  0  0  0  0  0  0  0  0
   -2.1390   -1.2470    0.2010 O   0  0  0  0  0  0  0  0  0  0  0  0
    0.6190   -3.6390    0.9420 N   0  0  0  0  0  0  0  0  0  0  0  0
    1.8400   -1.4180   -0.1190 C   0  0  0  0  0  0  0  0  0  0  0  0
    3.9680   -2.2080    0.7710 C   0  0  0  0  0  0  0  0  0  0  0  0
    4.5720   -1.1070    0.2470 C   0  0  0  0  0  0  0  0  0  0  0  0
    3.8370   -0.1490   -0.4590 C   0  0  0  0  0  0  0  0  0  0  0  0
    4.4710    0.9360   -0.9740 O   0  0  0  0  0  0  0  0  0  0  0  0
    4.5140    2.1320   -0.0330 S   0  0  0  0  0  0  0  0  0  0  0  0
    4.9690    3.2030   -0.8490 O   0  0  0  0  0  0  0  0  0  0  0  0
    3.2230    2.1590    0.5600 O   0  0  0  0  0  0  0  0  0  0  0  0
    5.7710    1.6930    1.1990 C   0  0  0  0  0  0  0  0  0  0  0  0
    0.0690   -0.1260   -1.6380 H   0  0  0  0  0  0  0  0  0  0  0  0
    2.4610   -4.2560    1.6690 H   0  0  0  0  0  0  0  0  0  0  0  0
   -1.1720   -2.9230    0.1690 H   0  0  0  0  0  0  0  0  0  0  0  0
   -7.5730    0.0320    0.2200 H   0  0  0  0  0  0  0  0  0  0  0  0
   -3.7030    1.8260    0.3510 H   0  0  0  0  0  0  0  0  0  0  0  0
    1.9350    0.4400   -1.2080 H   0  0  0  0  0  0  0  0  0  0  0  0
   -6.7960   -1.5130   -1.5340 H   0  0  0  0  0  0  0  0  0  0  0  0
   -4.4760   -1.3870   -2.3460 H   0  0  0  0  0  0  0  0  0  0  0  0
   -2.1650    1.3240   -1.4590 H   0  0  0  0  0  0  0  0  0  0  0  0
   -2.4860   -0.0200   -2.5820 H   0  0  0  0  0  0  0  0  0  0  0  0
    4.5480   -2.9390    1.3140 H   0  0  0  0  0  0  0  0  0  0  0  0
    5.6350   -0.9710    0.3790 H   0  0  0  0  0  0  0  0  0  0  0  0
    6.7280    1.5320    0.7010 H   0  0  0  0  0  0  0  0  0  0  0  0
    5.8700    2.5030    1.9220 H   0  0  0  0  0  0  0  0  0  0  0  0
    5.4720    0.7810    1.7150 H   0  0  0  0  0  0  0  0  0  0  0  0
 11 12  1  0  0  0  0
  8 12  2  0  0  0  0
  8 13  1  0  0  0  0
  9 12  1  0  0  0  0
 13 14  2  0  0  0  0
  7  9  2  0  0  0  0
  7 14  1  0  0  0  0
  7 15  1  0  0  0  0
  6 15  1  0  0  0  0
  6 16  2  0  0  0  0
  1  6  1  0  0  0  0
  1  5  1  0  0  0  0
  4  5  2  0  0  0  0
  5 18  1  0  0  0  0
  4 17  1  0  0  0  0
  3 17  2  0  0  0  0
 10 18  1  0  0  0  0
  2 18  2  0  0  0  0
 10 21  2  0  0  0  0
  2  3  1  0  0  0  0
  2 19  1  0  0  0  0
 23 26  1  0  0  0  0
 21 22  1  0  0  0  0
 20 21  1  0  0  0  0
 22 23  1  0  0  0  0
 23 24  2  0  0  0  0
 23 25  2  0  0  0  0
 19 20  2  0  0  0  0
  1 27  1  0  0  0  0
  3 28  1  0  0  0  0
  4 29  1  0  0  0  0
  8 30  1  0  0  0  0
  9 31  1  0  0  0  0
 10 32  1  0  0  0  0
 13 33  1  0  0  0  0
 14 34  1  0  0  0  0
 15 35  1  0  0  0  0
 15 36  1  0  0  0  0
 19 37  1  0  0  0  0
 20 38  1  0  0  0  0
 26 39  1  0  0  0  0
 26 40  1  0  0  0  0
 26 41  1  0  0  0  0
M  END
> <OPENEYE_ISO_SMILES>
CS(=O)(=O)Oc1ccc2cncc(c2c1)NC(=O)Cc3cccc(c3)Cl

> <OPENEYE_INCHI>
InChI=1S/C18H15ClN2O4S/c1-26(23,24)25-15-6-5-13-10-20-11-17(16(13)9-15)21-18(22)8-12-3-2-4-14(19)7-12/h2-7,9-11H,8H2,1H3,(H,21,22)

> <OPENEYE_INCHIKEY>
QXFKQZYRPVUBJK-UHFFFAOYSA-N

> <FORMULA>
C18H15ClN2O4S

$$$$
