ROZ
  -OEChem-05102419333D

 38 40  0     0  0  0  0  0  0999 V2000
    1.6690    3.2140   -0.4630 N   0  0  0  0  0  0  0  0  0  0  0  0
    3.4530    1.6780   -0.5440 C   0  0  0  0  0  0  0  0  0  0  0  0
    2.9210    2.9580   -0.7610 C   0  0  0  0  0  0  0  0  0  0  0  0
    0.8510    2.3070    0.0480 C   0  0  0  0  0  0  0  0  0  0  0  0
    1.2720    1.0160    0.3010 C   0  0  0  0  0  0  0  0  0  0  0  0
   -0.9320    0.2100    0.6650 C   0  0  0  0  0  0  0  0  0  0  0  0
   -3.3010   -0.3710    0.9930 C   0  0  0  0  0  0  0  0  0  0  0  0
   -5.9060    0.2940    0.3460 C   0  0  0  0  0  0  0  0  0  0  0  0
   -3.9020   -0.9350   -0.1160 C   0  0  0  0  0  0  0  0  0  0  0  0
    3.1160   -0.6100    0.2290 C   0  0  0  0  0  0  0  0  0  0  0  0
   -5.9620   -1.3110   -1.8330 Cl  0  0  0  0  0  0  0  0  0  0  0  0
   -5.2060   -0.6020   -0.4400 C   0  0  0  0  0  0  0  0  0  0  0  0
   -5.3040    0.8570    1.4560 C   0  0  0  0  0  0  0  0  0  0  0  0
   -4.0020    0.5250    1.7790 C   0  0  0  0  0  0  0  0  0  0  0  0
   -1.8830   -0.7380    1.3500 C   0  0  0  0  0  0  0  0  0  0  0  0
   -1.3630    1.0950   -0.0430 O   0  0  0  0  0  0  0  0  0  0  0  0
    0.3970    0.0730    0.8400 N   0  0  0  0  0  0  0  0  0  0  0  0
    2.6110    0.6750    0.0030 C   0  0  0  0  0  0  0  0  0  0  0  0
    4.7900    1.3700   -0.8530 C   0  0  0  0  0  0  0  0  0  0  0  0
    5.2650    0.1180   -0.6270 C   0  0  0  0  0  0  0  0  0  0  0  0
    4.4380   -0.8830   -0.0860 C   0  0  0  0  0  0  0  0  0  0  0  0
    4.9830   -2.2370    0.1480 C   0  0  0  0  0  0  0  0  0  0  0  0
    4.2730   -3.1050    0.6160 O   0  0  0  0  0  0  0  0  0  0  0  0
    6.2680   -2.5080   -0.1560 N   0  0  0  0  0  0  0  0  0  0  0  0
    3.5450    3.7360   -1.1770 H   0  0  0  0  0  0  0  0  0  0  0  0
   -0.1690    2.5820    0.2720 H   0  0  0  0  0  0  0  0  0  0  0  0
   -6.9230    0.5540    0.0940 H   0  0  0  0  0  0  0  0  0  0  0  0
   -3.3550   -1.6350   -0.7300 H   0  0  0  0  0  0  0  0  0  0  0  0
    2.4840   -1.3800    0.6440 H   0  0  0  0  0  0  0  0  0  0  0  0
   -5.8510    1.5570    2.0700 H   0  0  0  0  0  0  0  0  0  0  0  0
   -3.5310    0.9650    2.6460 H   0  0  0  0  0  0  0  0  0  0  0  0
   -1.6790   -1.7570    1.0230 H   0  0  0  0  0  0  0  0  0  0  0  0
   -1.7510   -0.6690    2.4290 H   0  0  0  0  0  0  0  0  0  0  0  0
    0.7460   -0.6820    1.3390 H   0  0  0  0  0  0  0  0  0  0  0  0
    5.4370    2.1270   -1.2690 H   0  0  0  0  0  0  0  0  0  0  0  0
    6.2930   -0.1130   -0.8670 H   0  0  0  0  0  0  0  0  0  0  0  0
    6.8350   -1.8150   -0.5290 H   0  0  0  0  0  0  0  0  0  0  0  0
    6.6260   -3.3970   -0.0020 H   0  0  0  0  0  0  0  0  0  0  0  0
 22 24  1  0  0  0  0
 19 20  2  0  0  0  0
 20 21  1  0  0  0  0
  2 19  1  0  0  0  0
 21 22  1  0  0  0  0
 22 23  2  0  0  0  0
 10 21  2  0  0  0  0
  2  3  2  0  0  0  0
  2 18  1  0  0  0  0
  1  3  1  0  0  0  0
 10 18  1  0  0  0  0
  5 18  2  0  0  0  0
  1  4  2  0  0  0  0
  4  5  1  0  0  0  0
  5 17  1  0  0  0  0
  6 17  1  0  0  0  0
  6 15  1  0  0  0  0
  6 16  2  0  0  0  0
  7 15  1  0  0  0  0
  7  9  2  0  0  0  0
  7 14  1  0  0  0  0
  9 12  1  0  0  0  0
 13 14  2  0  0  0  0
 11 12  1  0  0  0  0
  8 12  2  0  0  0  0
  8 13  1  0  0  0  0
  3 25  1  0  0  0  0
  4 26  1  0  0  0  0
  8 27  1  0  0  0  0
  9 28  1  0  0  0  0
 10 29  1  0  0  0  0
 13 30  1  0  0  0  0
 14 31  1  0  0  0  0
 15 32  1  0  0  0  0
 15 33  1  0  0  0  0
 17 34  1  0  0  0  0
 19 35  1  0  0  0  0
 20 36  1  0  0  0  0
 24 37  1  0  0  0  0
 24 38  1  0  0  0  0
M  END
> <OPENEYE_ISO_SMILES>
c1cc(cc(c1)Cl)CC(=O)Nc2cncc3c2cc(cc3)C(=O)N

> <OPENEYE_INCHI>
InChI=1S/C18H14ClN3O2/c19-14-3-1-2-11(6-14)7-17(23)22-16-10-21-9-13-5-4-12(18(20)24)8-15(13)16/h1-6,8-10H,7H2,(H2,20,24)(H,22,23)

> <OPENEYE_INCHIKEY>
IODVSEDZYFGXPU-UHFFFAOYSA-N

> <FORMULA>
C18H14ClN3O2

$$$$
