RPK
  -OEChem-05102419333D

 41 43  0     0  0  0  0  0  0999 V2000
    1.4660    3.4840   -0.5360 N   0  0  0  0  0  0  0  0  0  0  0  0
    4.6710    1.7760   -0.8510 C   0  0  0  0  0  0  0  0  0  0  0  0
    3.3210    2.0320   -0.5600 C   0  0  0  0  0  0  0  0  0  0  0  0
    2.7300    3.2790   -0.8200 C   0  0  0  0  0  0  0  0  0  0  0  0
    0.6890    2.5530   -0.0010 C   0  0  0  0  0  0  0  0  0  0  0  0
    1.1690    1.2950    0.2960 C   0  0  0  0  0  0  0  0  0  0  0  0
   -1.9070   -0.5750    1.3880 C   0  0  0  0  0  0  0  0  0  0  0  0
   -5.3960    0.8690    1.4210 C   0  0  0  0  0  0  0  0  0  0  0  0
   -5.2220   -0.6540   -0.4190 C   0  0  0  0  0  0  0  0  0  0  0  0
    2.5230    1.0080    0.0140 C   0  0  0  0  0  0  0  0  0  0  0  0
   -5.9360   -1.4420   -1.7920 Cl  0  0  0  0  0  0  0  0  0  0  0  0
   -5.9650    0.2420    0.3280 C   0  0  0  0  0  0  0  0  0  0  0  0
   -4.0830    0.6040    1.7640 C   0  0  0  0  0  0  0  0  0  0  0  0
   -3.9060   -0.9150   -0.0790 C   0  0  0  0  0  0  0  0  0  0  0  0
   -3.3390   -0.2870    1.0140 C   0  0  0  0  0  0  0  0  0  0  0  0
   -0.9980    0.3950    0.6770 C   0  0  0  0  0  0  0  0  0  0  0  0
   -1.4670    1.2360   -0.0610 O   0  0  0  0  0  0  0  0  0  0  0  0
    0.3350    0.3270    0.8610 N   0  0  0  0  0  0  0  0  0  0  0  0
    5.1990    0.5520   -0.5820 C   0  0  0  0  0  0  0  0  0  0  0  0
    3.0900   -0.2430    0.2830 C   0  0  0  0  0  0  0  0  0  0  0  0
    4.4180   -0.4620   -0.0150 C   0  0  0  0  0  0  0  0  0  0  0  0
    4.9900   -1.7090    0.2500 N   0  0  0  0  0  0  0  0  0  0  0  0
    4.2580   -2.8310    0.1060 C   0  0  0  0  0  0  0  0  0  0  0  0
    3.0800   -2.7550   -0.1710 O   0  0  0  0  0  0  0  0  0  0  0  0
    4.9030   -4.1810    0.2880 C   0  0  0  0  0  0  0  0  0  0  0  0
    5.2870    2.5480   -1.2890 H   0  0  0  0  0  0  0  0  0  0  0  0
    3.3190    4.0720   -1.2570 H   0  0  0  0  0  0  0  0  0  0  0  0
   -0.3450    2.7860    0.2090 H   0  0  0  0  0  0  0  0  0  0  0  0
   -1.7840   -0.4640    2.4650 H   0  0  0  0  0  0  0  0  0  0  0  0
   -1.6530   -1.5930    1.0950 H   0  0  0  0  0  0  0  0  0  0  0  0
   -5.9760    1.5690    2.0040 H   0  0  0  0  0  0  0  0  0  0  0  0
   -6.9890    0.4510    0.0580 H   0  0  0  0  0  0  0  0  0  0  0  0
   -3.6390    1.0940    2.6180 H   0  0  0  0  0  0  0  0  0  0  0  0
   -3.3230   -1.6080   -0.6670 H   0  0  0  0  0  0  0  0  0  0  0  0
    0.7160   -0.3950    1.3860 H   0  0  0  0  0  0  0  0  0  0  0  0
    6.2380    0.3600   -0.8080 H   0  0  0  0  0  0  0  0  0  0  0  0
    2.4920   -1.0290    0.7200 H   0  0  0  0  0  0  0  0  0  0  0  0
    5.9150   -1.7670    0.5390 H   0  0  0  0  0  0  0  0  0  0  0  0
    5.9570   -4.0500    0.5310 H   0  0  0  0  0  0  0  0  0  0  0  0
    4.4070   -4.7140    1.0990 H   0  0  0  0  0  0  0  0  0  0  0  0
    4.8110   -4.7550   -0.6340 H   0  0  0  0  0  0  0  0  0  0  0  0
 23 25  1  0  0  0  0
  2 19  2  0  0  0  0
  2  3  1  0  0  0  0
 19 21  1  0  0  0  0
 21 22  1  0  0  0  0
 22 23  1  0  0  0  0
  3  4  2  0  0  0  0
  1  4  1  0  0  0  0
  3 10  1  0  0  0  0
 20 21  2  0  0  0  0
 23 24  2  0  0  0  0
  1  5  2  0  0  0  0
 10 20  1  0  0  0  0
  6 10  2  0  0  0  0
  5  6  1  0  0  0  0
  6 18  1  0  0  0  0
 16 18  1  0  0  0  0
  7 16  1  0  0  0  0
 16 17  2  0  0  0  0
  7 15  1  0  0  0  0
 14 15  2  0  0  0  0
 13 15  1  0  0  0  0
  9 14  1  0  0  0  0
  8 13  2  0  0  0  0
  9 11  1  0  0  0  0
  9 12  2  0  0  0  0
  8 12  1  0  0  0  0
  2 26  1  0  0  0  0
  4 27  1  0  0  0  0
  5 28  1  0  0  0  0
  7 29  1  0  0  0  0
  7 30  1  0  0  0  0
  8 31  1  0  0  0  0
 12 32  1  0  0  0  0
 13 33  1  0  0  0  0
 14 34  1  0  0  0  0
 18 35  1  0  0  0  0
 19 36  1  0  0  0  0
 20 37  1  0  0  0  0
 22 38  1  0  0  0  0
 25 39  1  0  0  0  0
 25 40  1  0  0  0  0
 25 41  1  0  0  0  0
M  END
> <OPENEYE_ISO_SMILES>
CC(=O)Nc1ccc2cncc(c2c1)NC(=O)Cc3cccc(c3)Cl

> <OPENEYE_INCHI>
InChI=1S/C19H16ClN3O2/c1-12(24)22-16-6-5-14-10-21-11-18(17(14)9-16)23-19(25)8-13-3-2-4-15(20)7-13/h2-7,9-11H,8H2,1H3,(H,22,24)(H,23,25)

> <OPENEYE_INCHIKEY>
CKGZDMAYPZCRDY-UHFFFAOYSA-N

> <FORMULA>
C19H16ClN3O2

$$$$
