RPZ
  -OEChem-05102419333D

 54 58  0     1  0  0  0  0  0999 V2000
    2.2850   -1.3600   -0.5610 N   0  0  1  0  0  0  0  0  0  0  0  0
   -4.1840    1.0490    2.0680 N   0  0  0  0  0  0  0  0  0  0  0  0
    2.8370    0.9950   -0.2050 C   0  0  0  0  0  0  0  0  0  0  0  0
    3.6680    1.9610    0.3430 C   0  0  0  0  0  0  0  0  0  0  0  0
    3.2120    3.2500    0.5280 C   0  0  0  0  0  0  0  0  0  0  0  0
    1.9190    3.5830    0.1650 C   0  0  0  0  0  0  0  0  0  0  0  0
    1.0900    2.6210   -0.3790 C   0  0  0  0  0  0  0  0  0  0  0  0
    0.6120    0.3050   -1.1520 C   0  0  1  0  0  0  0  0  0  0  0  0
   -0.4410   -0.0890   -0.1460 C   0  0  0  0  0  0  0  0  0  0  0  0
   -3.0700    1.1880    1.3650 C   0  0  0  0  0  0  0  0  0  0  0  0
   -4.8880   -0.7640    0.7400 C   0  0  0  0  0  0  0  0  0  0  0  0
   -4.4240   -2.4870   -1.3830 C   0  0  0  0  0  0  0  0  0  0  0  0
   -3.4950   -1.5300   -1.1070 C   0  0  0  0  0  0  0  0  0  0  0  0
   -3.7080   -0.6490   -0.0390 C   0  0  0  0  0  0  0  0  0  0  0  0
   -0.2660   -0.8480    0.7840 O   0  0  0  0  0  0  0  0  0  0  0  0
   -1.6030    0.5260   -0.4330 N   0  0  0  0  0  0  0  0  0  0  0  0
   -2.7820    0.3630    0.2980 C   0  0  0  0  0  0  0  0  0  0  0  0
   -5.5850   -2.6010   -0.6200 C   0  0  0  0  0  0  0  0  0  0  0  0
   -5.8240   -1.7620    0.4260 C   0  0  0  0  0  0  0  0  0  0  0  0
   -5.0830    0.1290    1.8060 C   0  0  0  0  0  0  0  0  0  0  0  0
   -1.4720    1.3890   -1.6130 C   0  0  0  0  0  0  0  0  0  0  0  0
   -0.1780    0.9270   -2.3210 C   0  0  0  0  0  0  0  0  0  0  0  0
    1.5460    1.3250   -0.5630 C   0  0  0  0  0  0  0  0  0  0  0  0
    1.3410    5.2040    0.3920 Cl  0  0  0  0  0  0  0  0  0  0  0  0
    3.3790   -0.3980   -0.3930 C   0  0  0  0  0  0  0  0  0  0  0  0
    1.3780   -0.9210   -1.6350 C   0  0  0  0  0  0  0  0  0  0  0  0
    2.8060   -2.7070   -0.8300 C   0  0  0  0  0  0  0  0  0  0  0  0
    3.5440   -3.2110    0.3830 C   0  0  0  0  0  0  0  0  0  0  0  0
    3.6280   -2.5170    1.3740 O   0  0  0  0  0  0  0  0  0  0  0  0
    4.1110   -4.4340    0.3670 N   0  0  0  0  0  0  0  0  0  0  0  0
    4.8280   -4.9240    1.5470 C   0  0  0  0  0  0  0  0  0  0  0  0
    4.6770    1.7020    0.6270 H   0  0  0  0  0  0  0  0  0  0  0  0
    3.8630    3.9980    0.9560 H   0  0  0  0  0  0  0  0  0  0  0  0
    0.0800    2.8800   -0.6610 H   0  0  0  0  0  0  0  0  0  0  0  0
   -2.3710    1.9670    1.6330 H   0  0  0  0  0  0  0  0  0  0  0  0
   -4.2600   -3.1670   -2.2050 H   0  0  0  0  0  0  0  0  0  0  0  0
   -2.6000   -1.4520   -1.7060 H   0  0  0  0  0  0  0  0  0  0  0  0
   -6.3060   -3.3680   -0.8610 H   0  0  0  0  0  0  0  0  0  0  0  0
   -6.7280   -1.8630    1.0080 H   0  0  0  0  0  0  0  0  0  0  0  0
   -5.9740    0.0590    2.4110 H   0  0  0  0  0  0  0  0  0  0  0  0
   -2.3300    1.2580   -2.2730 H   0  0  0  0  0  0  0  0  0  0  0  0
   -1.3850    2.4320   -1.3090 H   0  0  0  0  0  0  0  0  0  0  0  0
    0.3580    1.7760   -2.7460 H   0  0  0  0  0  0  0  0  0  0  0  0
   -0.3950    0.1820   -3.0860 H   0  0  0  0  0  0  0  0  0  0  0  0
    3.9700   -0.6740    0.4800 H   0  0  0  0  0  0  0  0  0  0  0  0
    4.0150   -0.4190   -1.2780 H   0  0  0  0  0  0  0  0  0  0  0  0
    1.9570   -0.6650   -2.5220 H   0  0  0  0  0  0  0  0  0  0  0  0
    0.6760   -1.7220   -1.8700 H   0  0  0  0  0  0  0  0  0  0  0  0
    1.9780   -3.3780   -1.0560 H   0  0  0  0  0  0  0  0  0  0  0  0
    3.4870   -2.6700   -1.6800 H   0  0  0  0  0  0  0  0  0  0  0  0
    4.0440   -4.9890   -0.4250 H   0  0  0  0  0  0  0  0  0  0  0  0
    5.6570   -4.2530    1.7730 H   0  0  0  0  0  0  0  0  0  0  0  0
    4.1480   -4.9610    2.3970 H   0  0  0  0  0  0  0  0  0  0  0  0
    5.2150   -5.9240    1.3470 H   0  0  0  0  0  0  0  0  0  0  0  0
 18 19  2  0  0  0  0
 11 19  1  0  0  0  0
 12 18  1  0  0  0  0
 11 20  2  0  0  0  0
  2 20  1  0  0  0  0
 11 14  1  0  0  0  0
  2 10  2  0  0  0  0
 12 13  2  0  0  0  0
 13 14  1  0  0  0  0
 14 17  2  0  0  0  0
 10 17  1  0  0  0  0
 16 21  1  0  0  0  0
 21 22  1  0  0  0  0
 16 17  1  0  0  0  0
  9 16  1  0  0  0  0
  8 22  1  0  0  0  0
  8  9  1  0  0  0  0
  9 15  2  0  0  0  0
  8 26  1  0  0  0  0
  8 23  1  0  0  0  0
  1 26  1  0  0  0  0
 28 29  2  0  0  0  0
 30 31  1  0  0  0  0
 28 30  1  0  0  0  0
 27 28  1  0  0  0  0
  7 23  2  0  0  0  0
  6  7  1  0  0  0  0
  3 23  1  0  0  0  0
  1 27  1  0  0  0  0
  1 25  1  0  0  0  0
  6 24  1  0  0  0  0
  5  6  2  0  0  0  0
  3 25  1  0  0  0  0
  3  4  2  0  0  0  0
  4  5  1  0  0  0  0
  4 32  1  0  0  0  0
  5 33  1  0  0  0  0
  7 34  1  0  0  0  0
 10 35  1  0  0  0  0
 12 36  1  0  0  0  0
 13 37  1  0  0  0  0
 18 38  1  0  0  0  0
 19 39  1  0  0  0  0
 20 40  1  0  0  0  0
 21 41  1  0  0  0  0
 21 42  1  0  0  0  0
 22 43  1  0  0  0  0
 22 44  1  0  0  0  0
 25 45  1  0  0  0  0
 25 46  1  0  0  0  0
 26 47  1  0  0  0  0
 26 48  1  0  0  0  0
 27 49  1  0  0  0  0
 27 50  1  0  0  0  0
 30 51  1  0  0  0  0
 31 52  1  0  0  0  0
 31 53  1  0  0  0  0
 31 54  1  0  0  0  0
M  END
> <OPENEYE_ISO_SMILES>
CNC(=O)C[N@]1Cc2ccc(cc2[C@]3(C1)CCN(C3=O)c4cncc5c4cccc5)Cl

> <OPENEYE_INCHI>
InChI=1S/C24H23ClN4O2/c1-26-22(30)14-28-13-17-6-7-18(25)10-20(17)24(15-28)8-9-29(23(24)31)21-12-27-11-16-4-2-3-5-19(16)21/h2-7,10-12H,8-9,13-15H2,1H3,(H,26,30)/t24-/m1/s1

> <OPENEYE_INCHIKEY>
KZHDXVVSRJEQJU-XMMPIXPASA-N

> <FORMULA>
C24H23ClN4O2

$$$$
