RQO
  -OEChem-05102419333D

 44 46  0     0  0  0  0  0  0999 V2000
    0.8120    3.5020    0.3450 N   0  0  0  0  0  0  0  0  0  0  0  0
    4.9740    1.2250    0.1550 C   0  0  0  0  0  0  0  0  0  0  0  0
    4.2790    2.3760    0.3490 C   0  0  0  0  0  0  0  0  0  0  0  0
    2.8770    2.3720    0.2520 C   0  0  0  0  0  0  0  0  0  0  0  0
    2.1200    3.5390    0.4440 C   0  0  0  0  0  0  0  0  0  0  0  0
    0.1420    2.3950    0.0650 C   0  0  0  0  0  0  0  0  0  0  0  0
   -1.2250   -0.0660   -0.0630 C   0  0  0  0  0  0  0  0  0  0  0  0
   -3.7490   -1.6500    1.3020 C   0  0  0  0  0  0  0  0  0  0  0  0
   -6.0100   -0.9010    1.0500 C   0  0  0  0  0  0  0  0  0  0  0  0
   -4.4130   -0.4980   -0.6900 C   0  0  0  0  0  0  0  0  0  0  0  0
   -6.9300    0.3900   -1.1440 Cl  0  0  0  0  0  0  0  0  0  0  0  0
   -5.7010   -0.3890   -0.1970 C   0  0  0  0  0  0  0  0  0  0  0  0
   -5.0340   -1.5310    1.7990 C   0  0  0  0  0  0  0  0  0  0  0  0
   -3.4390   -1.1330    0.0570 C   0  0  0  0  0  0  0  0  0  0  0  0
   -2.0390   -1.2620   -0.4840 C   0  0  0  0  0  0  0  0  0  0  0  0
   -1.7320    0.8060    0.6110 O   0  0  0  0  0  0  0  0  0  0  0  0
    0.0670    0.0360   -0.4350 N   0  0  0  0  0  0  0  0  0  0  0  0
    0.7880    1.1930   -0.1410 C   0  0  0  0  0  0  0  0  0  0  0  0
    2.1980    1.1620   -0.0490 C   0  0  0  0  0  0  0  0  0  0  0  0
    2.9290   -0.0140   -0.2460 C   0  0  0  0  0  0  0  0  0  0  0  0
    4.3110    0.0220   -0.1430 C   0  0  0  0  0  0  0  0  0  0  0  0
    5.0940   -1.2150   -0.3490 C   0  0  0  0  0  0  0  0  0  0  0  0
    6.2140   -1.1550   -0.8180 O   0  0  0  0  0  0  0  0  0  0  0  0
    4.5650   -2.4100   -0.0180 N   0  0  0  0  0  0  0  0  0  0  0  0
    3.2660   -2.4750    0.6550 C   0  0  0  0  0  0  0  0  0  0  0  0
    5.2910   -3.6440   -0.3310 C   0  0  0  0  0  0  0  0  0  0  0  0
    6.0510    1.2350    0.2310 H   0  0  0  0  0  0  0  0  0  0  0  0
    4.8030    3.2930    0.5770 H   0  0  0  0  0  0  0  0  0  0  0  0
    2.6160    4.4700    0.6740 H   0  0  0  0  0  0  0  0  0  0  0  0
   -0.9350    2.4330   -0.0020 H   0  0  0  0  0  0  0  0  0  0  0  0
   -2.9870   -2.1420    1.8870 H   0  0  0  0  0  0  0  0  0  0  0  0
   -7.0130   -0.8080    1.4390 H   0  0  0  0  0  0  0  0  0  0  0  0
   -4.1720   -0.0980   -1.6640 H   0  0  0  0  0  0  0  0  0  0  0  0
   -5.2740   -1.9310    2.7730 H   0  0  0  0  0  0  0  0  0  0  0  0
   -2.0730   -1.3130   -1.5720 H   0  0  0  0  0  0  0  0  0  0  0  0
   -1.5800   -2.1700   -0.0920 H   0  0  0  0  0  0  0  0  0  0  0  0
    0.4940   -0.6960   -0.9060 H   0  0  0  0  0  0  0  0  0  0  0  0
    2.4220   -0.9400   -0.4750 H   0  0  0  0  0  0  0  0  0  0  0  0
    2.4770   -2.5890   -0.0890 H   0  0  0  0  0  0  0  0  0  0  0  0
    3.2510   -3.3270    1.3340 H   0  0  0  0  0  0  0  0  0  0  0  0
    3.1030   -1.5570    1.2200 H   0  0  0  0  0  0  0  0  0  0  0  0
    5.9410   -3.9040    0.5040 H   0  0  0  0  0  0  0  0  0  0  0  0
    4.5780   -4.4510   -0.5020 H   0  0  0  0  0  0  0  0  0  0  0  0
    5.8930   -3.4940   -1.2270 H   0  0  0  0  0  0  0  0  0  0  0  0
 22 23  2  0  0  0  0
  2  3  2  0  0  0  0
  3  4  1  0  0  0  0
  2 21  1  0  0  0  0
  4  5  2  0  0  0  0
  1  5  1  0  0  0  0
  4 19  1  0  0  0  0
  1  6  2  0  0  0  0
 21 22  1  0  0  0  0
 20 21  2  0  0  0  0
 19 20  1  0  0  0  0
 18 19  2  0  0  0  0
 22 24  1  0  0  0  0
  6 18  1  0  0  0  0
 17 18  1  0  0  0  0
  7 17  1  0  0  0  0
 24 26  1  0  0  0  0
 24 25  1  0  0  0  0
  7 15  1  0  0  0  0
 14 15  1  0  0  0  0
  7 16  2  0  0  0  0
 10 14  2  0  0  0  0
  8 14  1  0  0  0  0
 10 12  1  0  0  0  0
  8 13  2  0  0  0  0
 11 12  1  0  0  0  0
  9 12  2  0  0  0  0
  9 13  1  0  0  0  0
  2 27  1  0  0  0  0
  3 28  1  0  0  0  0
  5 29  1  0  0  0  0
  6 30  1  0  0  0  0
  8 31  1  0  0  0  0
  9 32  1  0  0  0  0
 10 33  1  0  0  0  0
 13 34  1  0  0  0  0
 15 35  1  0  0  0  0
 15 36  1  0  0  0  0
 17 37  1  0  0  0  0
 20 38  1  0  0  0  0
 25 39  1  0  0  0  0
 25 40  1  0  0  0  0
 25 41  1  0  0  0  0
 26 42  1  0  0  0  0
 26 43  1  0  0  0  0
 26 44  1  0  0  0  0
M  END
> <OPENEYE_ISO_SMILES>
CN(C)C(=O)c1ccc2cncc(c2c1)NC(=O)Cc3cccc(c3)Cl

> <OPENEYE_INCHI>
InChI=1S/C20H18ClN3O2/c1-24(2)20(26)14-6-7-15-11-22-12-18(17(15)10-14)23-19(25)9-13-4-3-5-16(21)8-13/h3-8,10-12H,9H2,1-2H3,(H,23,25)

> <OPENEYE_INCHIKEY>
CAOMTBMUDFASIS-UHFFFAOYSA-N

> <FORMULA>
C20H18ClN3O2

$$$$
