RSL
  -OEChem-05102419333D

 41 43  0     0  0  0  0  0  0999 V2000
    0.5870    2.8820   -0.6280 N   0  0  0  0  0  0  0  0  0  0  0  0
    1.4080    0.3200   -0.0650 C   0  0  0  0  0  0  0  0  0  0  0  0
    0.0930    0.7400    0.2330 C   0  0  0  0  0  0  0  0  0  0  0  0
   -2.1440    0.0580    0.6560 C   0  0  0  0  0  0  0  0  0  0  0  0
   -3.1310   -0.8110    1.3910 C   0  0  0  0  0  0  0  0  0  0  0  0
   -4.5340   -0.3910    1.0350 C   0  0  0  0  0  0  0  0  0  0  0  0
   -6.4640    0.9610    1.4600 C   0  0  0  0  0  0  0  0  0  0  0  0
   -5.1760   -0.9710   -0.0420 C   0  0  0  0  0  0  0  0  0  0  0  0
    1.8210    2.5530   -0.9280 C   0  0  0  0  0  0  0  0  0  0  0  0
    3.6040    0.8660   -0.9680 C   0  0  0  0  0  0  0  0  0  0  0  0
   -7.2730   -1.3130   -1.7210 Cl  0  0  0  0  0  0  0  0  0  0  0  0
   -6.4640   -0.5850   -0.3690 C   0  0  0  0  0  0  0  0  0  0  0  0
   -7.1080    0.3820    0.3830 C   0  0  0  0  0  0  0  0  0  0  0  0
   -5.1790    0.5720    1.7890 C   0  0  0  0  0  0  0  0  0  0  0  0
   -2.5400    0.9330   -0.0840 O   0  0  0  0  0  0  0  0  0  0  0  0
   -0.8210   -0.1370    0.8220 N   0  0  0  0  0  0  0  0  0  0  0  0
   -0.2680    2.0360   -0.0710 C   0  0  0  0  0  0  0  0  0  0  0  0
    2.2920    1.2570   -0.6610 C   0  0  0  0  0  0  0  0  0  0  0  0
    1.8560   -0.9780    0.2110 C   0  0  0  0  0  0  0  0  0  0  0  0
    3.1350   -1.3280   -0.0980 C   0  0  0  0  0  0  0  0  0  0  0  0
    4.0090   -0.4090   -0.6870 C   0  0  0  0  0  0  0  0  0  0  0  0
    5.2800   -0.7880   -0.9830 O   0  0  0  0  0  0  0  0  0  0  0  0
    6.2760   -0.5500    0.1430 S   0  0  0  0  0  0  0  0  0  0  0  0
    7.5450   -0.7610   -0.4610 O   0  0  0  0  0  0  0  0  0  0  0  0
    5.9160    0.7210    0.6660 O   0  0  0  0  0  0  0  0  0  0  0  0
    5.9190   -1.8590    1.3470 C   0  0  0  0  0  0  0  0  0  0  0  0
   -2.9810   -1.8530    1.1070 H   0  0  0  0  0  0  0  0  0  0  0  0
   -2.9810   -0.7030    2.4660 H   0  0  0  0  0  0  0  0  0  0  0  0
   -6.9660    1.7160    2.0470 H   0  0  0  0  0  0  0  0  0  0  0  0
   -4.6730   -1.7250   -0.6290 H   0  0  0  0  0  0  0  0  0  0  0  0
    2.4770    3.2810   -1.3830 H   0  0  0  0  0  0  0  0  0  0  0  0
    4.2890    1.5670   -1.4220 H   0  0  0  0  0  0  0  0  0  0  0  0
   -8.1120    0.6870    0.1260 H   0  0  0  0  0  0  0  0  0  0  0  0
   -4.6780    1.0210    2.6340 H   0  0  0  0  0  0  0  0  0  0  0  0
   -0.5030   -0.8860    1.3490 H   0  0  0  0  0  0  0  0  0  0  0  0
   -1.2700    2.3700    0.1510 H   0  0  0  0  0  0  0  0  0  0  0  0
    1.1910   -1.6980    0.6660 H   0  0  0  0  0  0  0  0  0  0  0  0
    3.4800   -2.3290    0.1150 H   0  0  0  0  0  0  0  0  0  0  0  0
    6.0600   -2.8330    0.8780 H   0  0  0  0  0  0  0  0  0  0  0  0
    6.5940   -1.7640    2.1970 H   0  0  0  0  0  0  0  0  0  0  0  0
    4.8880   -1.7670    1.6890 H   0  0  0  0  0  0  0  0  0  0  0  0
 23 26  1  0  0  0  0
 21 22  1  0  0  0  0
 22 23  1  0  0  0  0
 23 24  2  0  0  0  0
 10 21  2  0  0  0  0
 20 21  1  0  0  0  0
 10 18  1  0  0  0  0
 23 25  2  0  0  0  0
  9 18  2  0  0  0  0
  1  9  1  0  0  0  0
  2 18  1  0  0  0  0
 19 20  2  0  0  0  0
  1 17  2  0  0  0  0
  2 19  1  0  0  0  0
  2  3  2  0  0  0  0
  3 17  1  0  0  0  0
  3 16  1  0  0  0  0
  4 16  1  0  0  0  0
  4  5  1  0  0  0  0
  4 15  2  0  0  0  0
  5  6  1  0  0  0  0
  6  8  2  0  0  0  0
  6 14  1  0  0  0  0
  8 12  1  0  0  0  0
  7 14  2  0  0  0  0
 11 12  1  0  0  0  0
 12 13  2  0  0  0  0
  7 13  1  0  0  0  0
  5 27  1  0  0  0  0
  5 28  1  0  0  0  0
  7 29  1  0  0  0  0
  8 30  1  0  0  0  0
  9 31  1  0  0  0  0
 10 32  1  0  0  0  0
 13 33  1  0  0  0  0
 14 34  1  0  0  0  0
 16 35  1  0  0  0  0
 17 36  1  0  0  0  0
 19 37  1  0  0  0  0
 20 38  1  0  0  0  0
 26 39  1  0  0  0  0
 26 40  1  0  0  0  0
 26 41  1  0  0  0  0
M  END
> <OPENEYE_ISO_SMILES>
CS(=O)(=O)Oc1ccc2c(c1)cncc2NC(=O)Cc3cccc(c3)Cl

> <OPENEYE_INCHI>
InChI=1S/C18H15ClN2O4S/c1-26(23,24)25-15-5-6-16-13(9-15)10-20-11-17(16)21-18(22)8-12-3-2-4-14(19)7-12/h2-7,9-11H,8H2,1H3,(H,21,22)

> <OPENEYE_INCHIKEY>
DLGHRHRFJGLPSU-UHFFFAOYSA-N

> <FORMULA>
C18H15ClN2O4S

$$$$
