RTS
  -OEChem-05102419333D

 53 56  0     1  0  0  0  0  0999 V2000
   -2.5850   -0.3290    0.1760 N   0  0  3  0  0  0  0  0  0  0  0  0
    2.5240   -3.5480   -1.1990 N   0  0  0  0  0  0  0  0  0  0  0  0
   -0.5700    0.4610    1.3050 C   0  0  2  0  0  0  0  0  0  0  0  0
    0.0190    0.7910    2.6780 C   0  0  0  0  0  0  0  0  0  0  0  0
    0.2550   -0.6380    0.6860 C   0  0  0  0  0  0  0  0  0  0  0  0
    2.3270   -1.4360   -0.1630 C   0  0  0  0  0  0  0  0  0  0  0  0
    1.7730   -2.5470   -0.7640 C   0  0  0  0  0  0  0  0  0  0  0  0
    4.4980   -2.4730   -0.4950 C   0  0  0  0  0  0  0  0  0  0  0  0
    5.7330   -0.2960    0.6970 C   0  0  0  0  0  0  0  0  0  0  0  0
    3.7300   -1.3810   -0.0160 C   0  0  0  0  0  0  0  0  0  0  0  0
    0.6280    2.5130    0.6290 C   0  0  0  0  0  0  0  0  0  0  0  0
   -1.2080    3.1390   -1.3110 C   0  0  0  0  0  0  0  0  0  0  0  0
   -1.3850    2.0100   -0.5300 C   0  0  0  0  0  0  0  0  0  0  0  0
   -3.9240    1.7140   -0.2740 O   0  0  0  0  0  0  0  0  0  0  0  0
   -2.8130    1.0030   -0.8020 S   0  0  0  0  0  0  0  0  0  0  0  0
   -2.7400    0.5430   -2.1450 O   0  0  0  0  0  0  0  0  0  0  0  0
   -2.9470   -1.6840   -0.2490 C   0  0  0  0  0  0  0  0  0  0  0  0
   -4.3430   -2.0010    0.2200 C   0  0  0  0  0  0  0  0  0  0  0  0
   -5.0060   -1.1490    0.7710 O   0  0  0  0  0  0  0  0  0  0  0  0
   -4.8550   -3.2330    0.0270 N   0  0  0  0  0  0  0  0  0  0  0  0
   -6.2120   -3.5420    0.4830 C   0  0  0  0  0  0  0  0  0  0  0  0
   -0.1120    3.9560   -1.1160 C   0  0  0  0  0  0  0  0  0  0  0  0
    0.7990    3.6440   -0.1420 C   0  0  0  0  0  0  0  0  0  0  0  0
    2.1760    4.6700    0.1160 Cl  0  0  0  0  0  0  0  0  0  0  0  0
   -0.4700    1.6800    0.4370 C   0  0  0  0  0  0  0  0  0  0  0  0
   -1.9890   -0.0490    1.4960 C   0  0  0  0  0  0  0  0  0  0  0  0
   -0.2190   -1.7460    0.5440 O   0  0  0  0  0  0  0  0  0  0  0  0
    1.5190   -0.3910    0.2890 N   0  0  0  0  0  0  0  0  0  0  0  0
    4.3750   -0.2910    0.5830 C   0  0  0  0  0  0  0  0  0  0  0  0
    6.4890   -1.3670    0.2270 C   0  0  0  0  0  0  0  0  0  0  0  0
    5.8950   -2.4430   -0.3600 C   0  0  0  0  0  0  0  0  0  0  0  0
    3.8320   -3.5560   -1.0920 C   0  0  0  0  0  0  0  0  0  0  0  0
   -0.1220   -0.0580    3.3470 H   0  0  0  0  0  0  0  0  0  0  0  0
    1.0830    1.0000    2.5760 H   0  0  0  0  0  0  0  0  0  0  0  0
   -0.4860    1.6650    3.0890 H   0  0  0  0  0  0  0  0  0  0  0  0
    0.7010   -2.6020   -0.8830 H   0  0  0  0  0  0  0  0  0  0  0  0
    6.2310    0.5440    1.1590 H   0  0  0  0  0  0  0  0  0  0  0  0
    1.3540    2.2720    1.3910 H   0  0  0  0  0  0  0  0  0  0  0  0
   -1.9310    3.3820   -2.0760 H   0  0  0  0  0  0  0  0  0  0  0  0
   -2.9060   -1.7460   -1.3370 H   0  0  0  0  0  0  0  0  0  0  0  0
   -2.2470   -2.3990    0.1830 H   0  0  0  0  0  0  0  0  0  0  0  0
   -4.3240   -3.9150   -0.4140 H   0  0  0  0  0  0  0  0  0  0  0  0
   -6.4500   -4.5780    0.2410 H   0  0  0  0  0  0  0  0  0  0  0  0
   -6.2750   -3.3970    1.5610 H   0  0  0  0  0  0  0  0  0  0  0  0
   -6.9220   -2.8810   -0.0140 H   0  0  0  0  0  0  0  0  0  0  0  0
    0.0270    4.8360   -1.7270 H   0  0  0  0  0  0  0  0  0  0  0  0
   -2.5810    0.7080    2.0100 H   0  0  0  0  0  0  0  0  0  0  0  0
   -1.9710   -0.9630    2.0890 H   0  0  0  0  0  0  0  0  0  0  0  0
    1.8670    0.5140    0.3180 H   0  0  0  0  0  0  0  0  0  0  0  0
    3.8010    0.5460    0.9520 H   0  0  0  0  0  0  0  0  0  0  0  0
    7.5640   -1.3450    0.3300 H   0  0  0  0  0  0  0  0  0  0  0  0
    6.4940   -3.2660   -0.7190 H   0  0  0  0  0  0  0  0  0  0  0  0
    4.3970   -4.3980   -1.4630 H   0  0  0  0  0  0  0  0  0  0  0  0
 30 31  2  0  0  0  0
  8 31  1  0  0  0  0
  9 30  1  0  0  0  0
  8 32  2  0  0  0  0
  2 32  1  0  0  0  0
  8 10  1  0  0  0  0
  9 29  2  0  0  0  0
  2  7  2  0  0  0  0
 10 29  1  0  0  0  0
  6 10  2  0  0  0  0
  6  7  1  0  0  0  0
  6 28  1  0  0  0  0
  5 28  1  0  0  0  0
  3  4  1  0  0  0  0
  3  5  1  0  0  0  0
  5 27  2  0  0  0  0
  3 26  1  0  0  0  0
  3 25  1  0  0  0  0
 20 21  1  0  0  0  0
  1 26  1  0  0  0  0
 18 20  1  0  0  0  0
 18 19  2  0  0  0  0
 17 18  1  0  0  0  0
 11 25  2  0  0  0  0
 11 23  1  0  0  0  0
 13 25  1  0  0  0  0
  1 17  1  0  0  0  0
  1 15  1  0  0  0  0
 23 24  1  0  0  0  0
 22 23  2  0  0  0  0
 14 15  2  0  0  0  0
 13 15  1  0  0  0  0
 12 13  2  0  0  0  0
 15 16  2  0  0  0  0
 12 22  1  0  0  0  0
  4 33  1  0  0  0  0
  4 34  1  0  0  0  0
  4 35  1  0  0  0  0
  7 36  1  0  0  0  0
  9 37  1  0  0  0  0
 11 38  1  0  0  0  0
 12 39  1  0  0  0  0
 17 40  1  0  0  0  0
 17 41  1  0  0  0  0
 20 42  1  0  0  0  0
 21 43  1  0  0  0  0
 21 44  1  0  0  0  0
 21 45  1  0  0  0  0
 22 46  1  0  0  0  0
 26 47  1  0  0  0  0
 26 48  1  0  0  0  0
 28 49  1  0  0  0  0
 29 50  1  0  0  0  0
 30 51  1  0  0  0  0
 31 52  1  0  0  0  0
 32 53  1  0  0  0  0
M  END
> <OPENEYE_ISO_SMILES>
C[C@]1(CN(S(=O)(=O)c2c1cc(cc2)Cl)CC(=O)NC)C(=O)Nc3cncc4c3cccc4

> <OPENEYE_INCHI>
InChI=1S/C22H21ClN4O4S/c1-22(21(29)26-18-11-25-10-14-5-3-4-6-16(14)18)13-27(12-20(28)24-2)32(30,31)19-8-7-15(23)9-17(19)22/h3-11H,12-13H2,1-2H3,(H,24,28)(H,26,29)/t22-/m1/s1

> <OPENEYE_INCHIKEY>
CJGIVGQVTPDSHN-JOCHJYFZSA-N

> <FORMULA>
C22H21ClN4O4S

$$$$
