RVR
  -OEChem-05102419333D

 44 47  0     1  0  0  0  0  0999 V2000
    1.3080   -0.3170    0.2170 N   0  0  0  0  0  0  0  0  0  0  0  0
   -1.9030    0.1260    0.2140 C   0  0  0  0  0  0  0  0  0  0  0  0
   -1.2640    1.3620    0.2590 C   0  0  0  0  0  0  0  0  0  0  0  0
   -1.0380   -1.0990    0.2440 C   0  0  1  0  0  0  0  0  0  0  0  0
   -1.6730   -2.3200   -0.4010 C   0  0  0  0  0  0  0  0  0  0  0  0
    0.2530   -0.7940   -0.4710 C   0  0  0  0  0  0  0  0  0  0  0  0
    2.5660    0.3010   -1.7550 C   0  0  0  0  0  0  0  0  0  0  0  0
    6.2620   -0.3200    0.2100 C   0  0  0  0  0  0  0  0  0  0  0  0
    5.0340   -1.3470    2.1100 C   0  0  0  0  0  0  0  0  0  0  0  0
    3.7340   -0.3250    0.2470 C   0  0  0  0  0  0  0  0  0  0  0  0
    0.3410   -0.9780   -1.6670 O   0  0  0  0  0  0  0  0  0  0  0  0
    2.5320   -0.1130   -0.4310 C   0  0  0  0  0  0  0  0  0  0  0  0
    3.6850   -0.7680    1.6830 C   0  0  0  0  0  0  0  0  0  0  0  0
    6.1320   -0.3460    1.7320 C   0  0  0  0  0  0  0  0  0  0  0  0
    4.9160   -0.1140   -0.4300 C   0  0  0  0  0  0  0  0  0  0  0  0
    4.8670    0.2930   -1.7550 C   0  0  0  0  0  0  0  0  0  0  0  0
    3.7170    0.4900   -2.3670 N   0  0  0  0  0  0  0  0  0  0  0  0
   -1.9940    2.5320    0.2800 C   0  0  0  0  0  0  0  0  0  0  0  0
   -1.1760    4.0620    0.3360 Cl  0  0  0  0  0  0  0  0  0  0  0  0
   -2.9570   -2.6080    0.2670 N   0  0  0  0  0  0  0  0  0  0  0  0
   -4.1400   -1.4490    0.0770 S   0  0  0  0  0  0  0  0  0  0  0  0
   -4.6210   -1.5680   -1.2550 O   0  0  0  0  0  0  0  0  0  0  0  0
   -4.9770   -1.5250    1.2230 O   0  0  0  0  0  0  0  0  0  0  0  0
   -3.2810    0.0940    0.1750 C   0  0  0  0  0  0  0  0  0  0  0  0
   -4.0160    1.2650    0.2040 C   0  0  0  0  0  0  0  0  0  0  0  0
   -3.3760    2.4880    0.2570 C   0  0  0  0  0  0  0  0  0  0  0  0
    1.2190   -0.1100    1.1610 H   0  0  0  0  0  0  0  0  0  0  0  0
   -0.1850    1.4040    0.2770 H   0  0  0  0  0  0  0  0  0  0  0  0
   -0.8080   -1.3360    1.2830 H   0  0  0  0  0  0  0  0  0  0  0  0
   -1.8490   -2.1220   -1.4590 H   0  0  0  0  0  0  0  0  0  0  0  0
   -1.0070   -3.1760   -0.2950 H   0  0  0  0  0  0  0  0  0  0  0  0
    1.6410    0.4660   -2.2880 H   0  0  0  0  0  0  0  0  0  0  0  0
    6.9270    0.4930   -0.0810 H   0  0  0  0  0  0  0  0  0  0  0  0
    6.6830   -1.2650   -0.1320 H   0  0  0  0  0  0  0  0  0  0  0  0
    5.0390   -1.5070    3.1880 H   0  0  0  0  0  0  0  0  0  0  0  0
    5.2040   -2.2940    1.5980 H   0  0  0  0  0  0  0  0  0  0  0  0
    2.9130   -1.5290    1.7990 H   0  0  0  0  0  0  0  0  0  0  0  0
    3.4430    0.0860    2.3160 H   0  0  0  0  0  0  0  0  0  0  0  0
    7.0790   -0.6570    2.1750 H   0  0  0  0  0  0  0  0  0  0  0  0
    5.8640    0.6460    2.0940 H   0  0  0  0  0  0  0  0  0  0  0  0
    5.7890    0.4560   -2.2940 H   0  0  0  0  0  0  0  0  0  0  0  0
   -3.1030   -3.4180    0.7810 H   0  0  0  0  0  0  0  0  0  0  0  0
   -5.0950    1.2230    0.1850 H   0  0  0  0  0  0  0  0  0  0  0  0
   -3.9510    3.4030    0.2800 H   0  0  0  0  0  0  0  0  0  0  0  0
  8 15  1  0  0  0  0
  8 14  1  0  0  0  0
 15 16  2  0  0  0  0
 16 17  1  0  0  0  0
 10 15  1  0  0  0  0
  7 17  2  0  0  0  0
  9 14  1  0  0  0  0
  9 13  1  0  0  0  0
 10 12  2  0  0  0  0
 10 13  1  0  0  0  0
  7 12  1  0  0  0  0
  1 12  1  0  0  0  0
  1  6  1  0  0  0  0
  4  6  1  0  0  0  0
  6 11  2  0  0  0  0
  4  5  1  0  0  0  0
  2  4  1  0  0  0  0
  5 20  1  0  0  0  0
  2  3  2  0  0  0  0
  3 18  1  0  0  0  0
 20 21  1  0  0  0  0
  2 24  1  0  0  0  0
 18 19  1  0  0  0  0
 18 26  2  0  0  0  0
 21 24  1  0  0  0  0
 24 25  2  0  0  0  0
 21 23  2  0  0  0  0
 21 22  2  0  0  0  0
 25 26  1  0  0  0  0
  1 27  1  0  0  0  0
  3 28  1  0  0  0  0
  4 29  1  0  0  0  0
  5 30  1  0  0  0  0
  5 31  1  0  0  0  0
  7 32  1  0  0  0  0
  8 33  1  0  0  0  0
  8 34  1  0  0  0  0
  9 35  1  0  0  0  0
  9 36  1  0  0  0  0
 13 37  1  0  0  0  0
 13 38  1  0  0  0  0
 14 39  1  0  0  0  0
 14 40  1  0  0  0  0
 16 41  1  0  0  0  0
 20 42  1  0  0  0  0
 25 43  1  0  0  0  0
 26 44  1  0  0  0  0
M  END
> <OPENEYE_ISO_SMILES>
c1cc2c(cc1Cl)[C@@H](CNS2(=O)=O)C(=O)Nc3cncc4c3CCCC4

> <OPENEYE_INCHI>
InChI=1S/C18H18ClN3O3S/c19-12-5-6-17-14(7-12)15(9-21-26(17,24)25)18(23)22-16-10-20-8-11-3-1-2-4-13(11)16/h5-8,10,15,21H,1-4,9H2,(H,22,23)/t15-/m1/s1

> <OPENEYE_INCHIKEY>
HAFJUHKWFUKUJR-OAHLLOKOSA-N

> <FORMULA>
C18H18ClN3O3S

$$$$
