RW9
  -OEChem-05102419333D

 53 57  0     1  0  0  0  0  0999 V2000
    2.7240    0.5670   -0.2560 N   0  0  0  0  0  0  0  0  0  0  0  0
   -3.7470    3.6980    0.6550 N   0  0  0  0  0  0  0  0  0  0  0  0
    0.7110   -0.0220    1.0300 C   0  0  2  0  0  0  0  0  0  0  0  0
    0.1560   -0.1400    2.4640 C   0  0  0  0  0  0  0  0  0  0  0  0
   -1.3500    0.1240    2.2390 C   0  0  0  0  0  0  0  0  0  0  0  0
   -0.2840    0.8530    0.3080 C   0  0  0  0  0  0  0  0  0  0  0  0
   -2.5470    1.6660    0.6230 C   0  0  0  0  0  0  0  0  0  0  0  0
   -4.7160    3.2170   -0.0870 C   0  0  0  0  0  0  0  0  0  0  0  0
   -5.5850    0.0420   -1.7460 C   0  0  0  0  0  0  0  0  0  0  0  0
   -3.4870   -0.2420   -0.6180 C   0  0  0  0  0  0  0  0  0  0  0  0
    0.7740   -1.3820    0.3940 C   0  0  0  0  0  0  0  0  0  0  0  0
    0.9070   -3.8740   -0.8220 C   0  0  0  0  0  0  0  0  0  0  0  0
    1.7690   -2.8750   -1.2270 C   0  0  0  0  0  0  0  0  0  0  0  0
    1.7090   -1.6240   -0.6180 C   0  0  0  0  0  0  0  0  0  0  0  0
    3.2730   -0.6310   -2.0450 O   0  0  0  0  0  0  0  0  0  0  0  0
    2.6210   -0.5340   -1.0240 C   0  0  0  0  0  0  0  0  0  0  0  0
    3.4860    1.7180   -0.7470 C   0  0  0  0  0  0  0  0  0  0  0  0
    4.8990    1.6430   -0.2280 C   0  0  0  0  0  0  0  0  0  0  0  0
    5.2640    0.6720    0.4000 O   0  0  0  0  0  0  0  0  0  0  0  0
    5.7580    2.6550   -0.4630 N   0  0  0  0  0  0  0  0  0  0  0  0
    7.1310    2.5820    0.0410 C   0  0  0  0  0  0  0  0  0  0  0  0
   -0.0080   -3.6340    0.1900 C   0  0  0  0  0  0  0  0  0  0  0  0
   -1.0830   -4.8990    0.6980 Cl  0  0  0  0  0  0  0  0  0  0  0  0
   -0.0740   -2.3900    0.7970 C   0  0  0  0  0  0  0  0  0  0  0  0
    2.0840    0.6350    1.0560 C   0  0  0  0  0  0  0  0  0  0  0  0
   -0.0820    1.4090   -0.7510 O   0  0  0  0  0  0  0  0  0  0  0  0
   -1.4280    0.9250    1.0110 N   0  0  0  0  0  0  0  0  0  0  0  0
   -3.5550    1.0870   -0.1780 C   0  0  0  0  0  0  0  0  0  0  0  0
   -4.4920   -0.7450   -1.3890 C   0  0  0  0  0  0  0  0  0  0  0  0
   -5.6840    1.3360   -1.3350 C   0  0  0  0  0  0  0  0  0  0  0  0
   -4.6680    1.8890   -0.5400 C   0  0  0  0  0  0  0  0  0  0  0  0
   -2.6930    2.9810    1.0140 C   0  0  0  0  0  0  0  0  0  0  0  0
    0.3210   -1.1400    2.8650 H   0  0  0  0  0  0  0  0  0  0  0  0
    0.5930    0.6160    3.1160 H   0  0  0  0  0  0  0  0  0  0  0  0
   -1.8830   -0.8170    2.1100 H   0  0  0  0  0  0  0  0  0  0  0  0
   -1.7640    0.6810    3.0800 H   0  0  0  0  0  0  0  0  0  0  0  0
   -5.5550    3.8450   -0.3510 H   0  0  0  0  0  0  0  0  0  0  0  0
   -6.3670   -0.3820   -2.3580 H   0  0  0  0  0  0  0  0  0  0  0  0
   -2.6450   -0.8620   -0.3490 H   0  0  0  0  0  0  0  0  0  0  0  0
    0.9460   -4.8440   -1.2940 H   0  0  0  0  0  0  0  0  0  0  0  0
    2.4820   -3.0610   -2.0160 H   0  0  0  0  0  0  0  0  0  0  0  0
    3.4980    1.7080   -1.8370 H   0  0  0  0  0  0  0  0  0  0  0  0
    3.0190    2.6380   -0.3970 H   0  0  0  0  0  0  0  0  0  0  0  0
    5.4660    3.4320   -0.9650 H   0  0  0  0  0  0  0  0  0  0  0  0
    7.6720    3.4850   -0.2440 H   0  0  0  0  0  0  0  0  0  0  0  0
    7.1160    2.4970    1.1280 H   0  0  0  0  0  0  0  0  0  0  0  0
    7.6290    1.7110   -0.3850 H   0  0  0  0  0  0  0  0  0  0  0  0
   -0.7900   -2.2110    1.5850 H   0  0  0  0  0  0  0  0  0  0  0  0
    2.7110    0.1250    1.7870 H   0  0  0  0  0  0  0  0  0  0  0  0
    1.9750    1.6800    1.3470 H   0  0  0  0  0  0  0  0  0  0  0  0
   -4.4390   -1.7690   -1.7290 H   0  0  0  0  0  0  0  0  0  0  0  0
   -6.5370    1.9340   -1.6200 H   0  0  0  0  0  0  0  0  0  0  0  0
   -1.9290    3.4360    1.6260 H   0  0  0  0  0  0  0  0  0  0  0  0
  9 30  2  0  0  0  0
 30 31  1  0  0  0  0
  8 31  2  0  0  0  0
  2  8  1  0  0  0  0
  9 29  1  0  0  0  0
 28 31  1  0  0  0  0
  2 32  2  0  0  0  0
 10 29  2  0  0  0  0
 10 28  1  0  0  0  0
  7 28  2  0  0  0  0
  7 32  1  0  0  0  0
  5 27  1  0  0  0  0
  4  5  1  0  0  0  0
  7 27  1  0  0  0  0
  6 27  1  0  0  0  0
  3  4  1  0  0  0  0
  3  6  1  0  0  0  0
  6 26  2  0  0  0  0
  3 25  1  0  0  0  0
  3 11  1  0  0  0  0
  1 25  1  0  0  0  0
 20 21  1  0  0  0  0
 18 19  2  0  0  0  0
 17 18  1  0  0  0  0
 18 20  1  0  0  0  0
 11 24  2  0  0  0  0
 11 14  1  0  0  0  0
  1 17  1  0  0  0  0
 22 24  1  0  0  0  0
  1 16  1  0  0  0  0
 14 16  1  0  0  0  0
 13 14  2  0  0  0  0
 15 16  2  0  0  0  0
 22 23  1  0  0  0  0
 12 22  2  0  0  0  0
 12 13  1  0  0  0  0
  4 33  1  0  0  0  0
  4 34  1  0  0  0  0
  5 35  1  0  0  0  0
  5 36  1  0  0  0  0
  8 37  1  0  0  0  0
  9 38  1  0  0  0  0
 10 39  1  0  0  0  0
 12 40  1  0  0  0  0
 13 41  1  0  0  0  0
 17 42  1  0  0  0  0
 17 43  1  0  0  0  0
 20 44  1  0  0  0  0
 21 45  1  0  0  0  0
 21 46  1  0  0  0  0
 21 47  1  0  0  0  0
 24 48  1  0  0  0  0
 25 49  1  0  0  0  0
 25 50  1  0  0  0  0
 29 51  1  0  0  0  0
 30 52  1  0  0  0  0
 32 53  1  0  0  0  0
M  END
> <OPENEYE_ISO_SMILES>
CNC(=O)CN1C[C@]2(CCN(C2=O)c3cncc4c3cccc4)c5cc(ccc5C1=O)Cl

> <OPENEYE_INCHI>
InChI=1S/C24H21ClN4O3/c1-26-21(30)13-28-14-24(19-10-16(25)6-7-18(19)22(28)31)8-9-29(23(24)32)20-12-27-11-15-4-2-3-5-17(15)20/h2-7,10-12H,8-9,13-14H2,1H3,(H,26,30)/t24-/m1/s1

> <OPENEYE_INCHIKEY>
ZIZXURDLSUGNHT-XMMPIXPASA-N

> <FORMULA>
C24H21ClN4O3

$$$$
