RWO
  -OEChem-05102419333D

 47 50  0     1  0  0  0  0  0999 V2000
   -1.1020   -0.0710    0.3260 N   0  0  0  0  0  0  0  0  0  0  0  0
    3.6210    0.5660   -1.3280 C   0  0  0  0  0  0  0  0  0  0  0  0
    3.2850    1.8960   -1.4920 C   0  0  0  0  0  0  0  0  0  0  0  0
    2.2370    2.4280   -0.7620 C   0  0  0  0  0  0  0  0  0  0  0  0
    1.5430    1.6360    0.1290 C   0  0  0  0  0  0  0  0  0  0  0  0
    1.8840    0.2990    0.3080 C   0  0  0  0  0  0  0  0  0  0  0  0
   -2.4380    0.3350    0.4110 C   0  0  0  0  0  0  0  0  0  0  0  0
   -4.7380    0.0660   -0.1560 C   0  0  0  0  0  0  0  0  0  0  0  0
   -5.3670   -1.5230   -1.9690 C   0  0  0  0  0  0  0  0  0  0  0  0
   -3.0400   -1.5570   -1.1000 C   0  0  0  0  0  0  0  0  0  0  0  0
   -0.6920    0.6020    2.4000 O   0  0  0  0  0  0  0  0  0  0  0  0
   -0.2890    0.0570    1.3940 C   0  0  0  0  0  0  0  0  0  0  0  0
    1.1180   -0.4780    1.3380 C   0  0  1  0  0  0  0  0  0  0  0  0
    1.7950    4.0940   -0.9690 Cl  0  0  0  0  0  0  0  0  0  0  0  0
    2.9120   -0.2290   -0.4450 C   0  0  0  0  0  0  0  0  0  0  0  0
    3.3360   -1.9400   -0.3090 S   0  0  0  0  0  0  0  0  0  0  0  0
    2.8360   -2.5810   -1.4740 O   0  0  0  0  0  0  0  0  0  0  0  0
    4.6990   -1.9940    0.0920 O   0  0  0  0  0  0  0  0  0  0  0  0
    2.4350   -2.5020    0.9760 N   0  0  0  0  0  0  0  0  0  0  0  0
    1.0590   -1.9720    1.0640 C   0  0  0  0  0  0  0  0  0  0  0  0
    1.7760   -0.2600    2.7020 C   0  0  0  0  0  0  0  0  0  0  0  0
   -3.4350   -0.3660   -0.2710 C   0  0  0  0  0  0  0  0  0  0  0  0
   -4.2620   -2.4240   -1.4050 C   0  0  0  0  0  0  0  0  0  0  0  0
   -5.8830   -0.6260   -0.8450 C   0  0  0  0  0  0  0  0  0  0  0  0
   -5.0100    1.1790    0.6260 C   0  0  0  0  0  0  0  0  0  0  0  0
   -4.0490    1.8180    1.2610 N   0  0  0  0  0  0  0  0  0  0  0  0
   -2.7910    1.4350    1.1800 C   0  0  0  0  0  0  0  0  0  0  0  0
   -0.7610   -0.4470   -0.5000 H   0  0  0  0  0  0  0  0  0  0  0  0
    4.4380    0.1440   -1.8940 H   0  0  0  0  0  0  0  0  0  0  0  0
    3.8370    2.5150   -2.1840 H   0  0  0  0  0  0  0  0  0  0  0  0
    0.7260    2.0590    0.6950 H   0  0  0  0  0  0  0  0  0  0  0  0
   -4.9630   -0.9080   -2.7730 H   0  0  0  0  0  0  0  0  0  0  0  0
   -6.1810   -2.1390   -2.3530 H   0  0  0  0  0  0  0  0  0  0  0  0
   -2.5990   -1.2140   -2.0360 H   0  0  0  0  0  0  0  0  0  0  0  0
   -2.3080   -2.1510   -0.5530 H   0  0  0  0  0  0  0  0  0  0  0  0
    2.7890   -3.1370    1.6180 H   0  0  0  0  0  0  0  0  0  0  0  0
    0.5290   -2.4670    1.8780 H   0  0  0  0  0  0  0  0  0  0  0  0
    0.5380   -2.1530    0.1240 H   0  0  0  0  0  0  0  0  0  0  0  0
    1.2090   -0.7890    3.4680 H   0  0  0  0  0  0  0  0  0  0  0  0
    2.7970   -0.6420    2.6780 H   0  0  0  0  0  0  0  0  0  0  0  0
    1.7920    0.8050    2.9320 H   0  0  0  0  0  0  0  0  0  0  0  0
   -4.6100   -2.9010   -0.4890 H   0  0  0  0  0  0  0  0  0  0  0  0
   -3.9980   -3.1840   -2.1400 H   0  0  0  0  0  0  0  0  0  0  0  0
   -6.4260   -1.2320   -0.1210 H   0  0  0  0  0  0  0  0  0  0  0  0
   -6.5570    0.1230   -1.2630 H   0  0  0  0  0  0  0  0  0  0  0  0
   -6.0290    1.5260    0.7190 H   0  0  0  0  0  0  0  0  0  0  0  0
   -2.0290    1.9810    1.7160 H   0  0  0  0  0  0  0  0  0  0  0  0
  8 24  1  0  0  0  0
  9 24  1  0  0  0  0
  8 25  2  0  0  0  0
 25 26  1  0  0  0  0
  8 22  1  0  0  0  0
  9 23  1  0  0  0  0
 10 23  1  0  0  0  0
 26 27  2  0  0  0  0
 10 22  1  0  0  0  0
  7 22  2  0  0  0  0
  7 27  1  0  0  0  0
  1  7  1  0  0  0  0
  1 12  1  0  0  0  0
 19 20  1  0  0  0  0
 13 20  1  0  0  0  0
 12 13  1  0  0  0  0
 11 12  2  0  0  0  0
 13 21  1  0  0  0  0
 16 19  1  0  0  0  0
  6 13  1  0  0  0  0
 16 18  2  0  0  0  0
 16 17  2  0  0  0  0
 15 16  1  0  0  0  0
  5  6  2  0  0  0  0
  6 15  1  0  0  0  0
  4  5  1  0  0  0  0
  2 15  2  0  0  0  0
  3  4  2  0  0  0  0
  4 14  1  0  0  0  0
  2  3  1  0  0  0  0
  1 28  1  0  0  0  0
  2 29  1  0  0  0  0
  3 30  1  0  0  0  0
  5 31  1  0  0  0  0
  9 32  1  0  0  0  0
  9 33  1  0  0  0  0
 10 34  1  0  0  0  0
 10 35  1  0  0  0  0
 19 36  1  0  0  0  0
 20 37  1  0  0  0  0
 20 38  1  0  0  0  0
 21 39  1  0  0  0  0
 21 40  1  0  0  0  0
 21 41  1  0  0  0  0
 23 42  1  0  0  0  0
 23 43  1  0  0  0  0
 24 44  1  0  0  0  0
 24 45  1  0  0  0  0
 25 46  1  0  0  0  0
 27 47  1  0  0  0  0
M  END
> <OPENEYE_ISO_SMILES>
C[C@@]1(CNS(=O)(=O)c2c1cc(cc2)Cl)C(=O)Nc3cncc4c3CCCC4

> <OPENEYE_INCHI>
InChI=1S/C19H20ClN3O3S/c1-19(11-22-27(25,26)17-7-6-13(20)8-15(17)19)18(24)23-16-10-21-9-12-4-2-3-5-14(12)16/h6-10,22H,2-5,11H2,1H3,(H,23,24)/t19-/m0/s1

> <OPENEYE_INCHIKEY>
OLOUVJHSJAVGMH-IBGZPJMESA-N

> <FORMULA>
C19H20ClN3O3S

$$$$
