RWT
  -OEChem-05102419333D

 47 50  0     1  0  0  0  0  0999 V2000
    1.4760    0.4220    0.8770 N   0  0  0  0  0  0  0  0  0  0  0  0
   -3.9240   -0.6140   -1.0530 C   0  0  0  0  0  0  0  0  0  0  0  0
   -4.5580    0.5970   -0.8560 C   0  0  0  0  0  0  0  0  0  0  0  0
   -4.0110    1.5170    0.0210 C   0  0  0  0  0  0  0  0  0  0  0  0
   -2.8380    1.2250    0.6860 C   0  0  0  0  0  0  0  0  0  0  0  0
   -2.1900    0.0100    0.4860 C   0  0  0  0  0  0  0  0  0  0  0  0
    2.5220    0.9140    0.0870 C   0  0  0  0  0  0  0  0  0  0  0  0
    4.7940    0.8590   -0.6310 C   0  0  0  0  0  0  0  0  0  0  0  0
    6.4380   -0.5220    0.6330 C   0  0  0  0  0  0  0  0  0  0  0  0
    4.0180   -0.7950    1.1200 C   0  0  0  0  0  0  0  0  0  0  0  0
   -0.0210    0.8870   -0.6930 O   0  0  0  0  0  0  0  0  0  0  0  0
    0.2180    0.4070    0.3950 C   0  0  0  0  0  0  0  0  0  0  0  0
   -0.8930   -0.2070    1.2080 C   0  0  2  0  0  0  0  0  0  0  0  0
   -4.8030    3.0390    0.2860 Cl  0  0  0  0  0  0  0  0  0  0  0  0
   -2.7550   -0.9080   -0.3740 C   0  0  0  0  0  0  0  0  0  0  0  0
   -1.9920   -2.4820   -0.6330 S   0  0  0  0  0  0  0  0  0  0  0  0
   -1.7010   -2.5740   -2.0210 O   0  0  0  0  0  0  0  0  0  0  0  0
   -2.7760   -3.4380    0.0680 O   0  0  0  0  0  0  0  0  0  0  0  0
   -0.5300   -2.3840    0.1620 N   0  0  0  0  0  0  0  0  0  0  0  0
   -0.5610   -1.6690    1.4540 C   0  0  0  0  0  0  0  0  0  0  0  0
   -0.9610    0.5090    2.5580 C   0  0  0  0  0  0  0  0  0  0  0  0
    3.7950    0.3460    0.1670 C   0  0  0  0  0  0  0  0  0  0  0  0
    5.3030   -1.5430    0.7650 C   0  0  0  0  0  0  0  0  0  0  0  0
    6.1960    0.3130   -0.6240 C   0  0  0  0  0  0  0  0  0  0  0  0
    4.5000    1.9190   -1.4770 C   0  0  0  0  0  0  0  0  0  0  0  0
    3.2880    2.4320   -1.5330 N   0  0  0  0  0  0  0  0  0  0  0  0
    2.3050    1.9680   -0.7890 C   0  0  0  0  0  0  0  0  0  0  0  0
    1.6580    0.0880    1.7690 H   0  0  0  0  0  0  0  0  0  0  0  0
   -4.3450   -1.3370   -1.7360 H   0  0  0  0  0  0  0  0  0  0  0  0
   -5.4730    0.8250   -1.3840 H   0  0  0  0  0  0  0  0  0  0  0  0
   -2.4180    1.9480    1.3690 H   0  0  0  0  0  0  0  0  0  0  0  0
    6.4500    0.1290    1.5070 H   0  0  0  0  0  0  0  0  0  0  0  0
    7.3920   -1.0430    0.5520 H   0  0  0  0  0  0  0  0  0  0  0  0
    4.0950   -0.4070    2.1350 H   0  0  0  0  0  0  0  0  0  0  0  0
    3.1750   -1.4840    1.0600 H   0  0  0  0  0  0  0  0  0  0  0  0
    0.2830   -2.7710   -0.1990 H   0  0  0  0  0  0  0  0  0  0  0  0
    0.4130   -1.7460    1.9360 H   0  0  0  0  0  0  0  0  0  0  0  0
   -1.3220   -2.1120    2.0970 H   0  0  0  0  0  0  0  0  0  0  0  0
   -1.2220    1.5560    2.4010 H   0  0  0  0  0  0  0  0  0  0  0  0
   -1.7170    0.0350    3.1830 H   0  0  0  0  0  0  0  0  0  0  0  0
    0.0090    0.4470    3.0510 H   0  0  0  0  0  0  0  0  0  0  0  0
    5.1720   -2.0700   -0.1800 H   0  0  0  0  0  0  0  0  0  0  0  0
    5.5420   -2.2560    1.5550 H   0  0  0  0  0  0  0  0  0  0  0  0
    6.3430   -0.3120   -1.5050 H   0  0  0  0  0  0  0  0  0  0  0  0
    6.9050    1.1400   -0.6500 H   0  0  0  0  0  0  0  0  0  0  0  0
    5.2790    2.3290   -2.1040 H   0  0  0  0  0  0  0  0  0  0  0  0
    1.3220    2.4110   -0.8620 H   0  0  0  0  0  0  0  0  0  0  0  0
  8 24  1  0  0  0  0
  9 24  1  0  0  0  0
  8 25  2  0  0  0  0
 25 26  1  0  0  0  0
  8 22  1  0  0  0  0
  9 23  1  0  0  0  0
 10 23  1  0  0  0  0
 26 27  2  0  0  0  0
 10 22  1  0  0  0  0
  7 22  2  0  0  0  0
  7 27  1  0  0  0  0
  1  7  1  0  0  0  0
  1 12  1  0  0  0  0
 13 21  1  0  0  0  0
 12 13  1  0  0  0  0
 11 12  2  0  0  0  0
 13 20  1  0  0  0  0
  6 13  1  0  0  0  0
 19 20  1  0  0  0  0
 16 19  1  0  0  0  0
  5  6  2  0  0  0  0
  6 15  1  0  0  0  0
  4  5  1  0  0  0  0
  4 14  1  0  0  0  0
  3  4  2  0  0  0  0
 15 16  1  0  0  0  0
  2 15  2  0  0  0  0
 16 18  2  0  0  0  0
 16 17  2  0  0  0  0
  2  3  1  0  0  0  0
  1 28  1  0  0  0  0
  2 29  1  0  0  0  0
  3 30  1  0  0  0  0
  5 31  1  0  0  0  0
  9 32  1  0  0  0  0
  9 33  1  0  0  0  0
 10 34  1  0  0  0  0
 10 35  1  0  0  0  0
 19 36  1  0  0  0  0
 20 37  1  0  0  0  0
 20 38  1  0  0  0  0
 21 39  1  0  0  0  0
 21 40  1  0  0  0  0
 21 41  1  0  0  0  0
 23 42  1  0  0  0  0
 23 43  1  0  0  0  0
 24 44  1  0  0  0  0
 24 45  1  0  0  0  0
 25 46  1  0  0  0  0
 27 47  1  0  0  0  0
M  END
> <OPENEYE_ISO_SMILES>
C[C@]1(CNS(=O)(=O)c2c1cc(cc2)Cl)C(=O)Nc3cncc4c3CCCC4

> <OPENEYE_INCHI>
InChI=1S/C19H20ClN3O3S/c1-19(11-22-27(25,26)17-7-6-13(20)8-15(17)19)18(24)23-16-10-21-9-12-4-2-3-5-14(12)16/h6-10,22H,2-5,11H2,1H3,(H,23,24)/t19-/m1/s1

> <OPENEYE_INCHIKEY>
OLOUVJHSJAVGMH-LJQANCHMSA-N

> <FORMULA>
C19H20ClN3O3S

$$$$
