RXU
  -OEChem-05102419333D

 58 62  0     1  0  0  0  0  0999 V2000
    2.2860   -1.3930   -0.5580 N   0  0  1  0  0  0  0  0  0  0  0  0
   -4.0970    1.1790    2.1060 N   0  0  0  0  0  0  0  0  0  0  0  0
    2.8970    0.9490   -0.2180 C   0  0  0  0  0  0  0  0  0  0  0  0
    3.7550    1.8970    0.3180 C   0  0  0  0  0  0  0  0  0  0  0  0
    3.3320    3.1980    0.5010 C   0  0  0  0  0  0  0  0  0  0  0  0
    2.0440    3.5600    0.1470 C   0  0  0  0  0  0  0  0  0  0  0  0
    1.1870    2.6150   -0.3860 C   0  0  0  0  0  0  0  0  0  0  0  0
    0.6480    0.3080   -1.1430 C   0  0  1  0  0  0  0  0  0  0  0  0
   -0.4060   -0.0560   -0.1270 C   0  0  0  0  0  0  0  0  0  0  0  0
   -2.9870    1.3000    1.4060 C   0  0  0  0  0  0  0  0  0  0  0  0
   -4.8150   -0.6230    0.7690 C   0  0  0  0  0  0  0  0  0  0  0  0
   -4.2780   -2.6750   -1.0980 C   0  0  0  0  0  0  0  0  0  0  0  0
   -3.3900   -1.4320   -1.1600 C   0  0  0  0  0  0  0  0  0  0  0  0
   -3.6710   -0.5280    0.0090 C   0  0  0  0  0  0  0  0  0  0  0  0
   -0.2420   -0.8140    0.8060 O   0  0  0  0  0  0  0  0  0  0  0  0
   -1.5550    0.5850   -0.4070 N   0  0  0  0  0  0  0  0  0  0  0  0
   -2.7340    0.4540    0.3360 C   0  0  0  0  0  0  0  0  0  0  0  0
   -5.7310   -2.2250   -0.9060 C   0  0  0  0  0  0  0  0  0  0  0  0
   -5.8800   -1.6530    0.5030 C   0  0  0  0  0  0  0  0  0  0  0  0
   -4.9980    0.2610    1.8230 C   0  0  0  0  0  0  0  0  0  0  0  0
   -1.4130    1.4390   -1.5930 C   0  0  0  0  0  0  0  0  0  0  0  0
   -0.1360    0.9440   -2.3090 C   0  0  0  0  0  0  0  0  0  0  0  0
    1.6110    1.3080   -0.5670 C   0  0  0  0  0  0  0  0  0  0  0  0
    1.5070    5.1950    0.3700 Cl  0  0  0  0  0  0  0  0  0  0  0  0
    3.4030   -0.4570   -0.4040 C   0  0  0  0  0  0  0  0  0  0  0  0
    1.3800   -0.9380   -1.6260 C   0  0  0  0  0  0  0  0  0  0  0  0
    2.7720   -2.7540   -0.8240 C   0  0  0  0  0  0  0  0  0  0  0  0
    3.5080   -3.2700    0.3850 C   0  0  0  0  0  0  0  0  0  0  0  0
    3.6170   -2.5730    1.3720 O   0  0  0  0  0  0  0  0  0  0  0  0
    4.0450   -4.5060    0.3710 N   0  0  0  0  0  0  0  0  0  0  0  0
    4.7610   -5.0080    1.5470 C   0  0  0  0  0  0  0  0  0  0  0  0
    4.7600    1.6160    0.5950 H   0  0  0  0  0  0  0  0  0  0  0  0
    4.0040    3.9320    0.9190 H   0  0  0  0  0  0  0  0  0  0  0  0
    0.1820    2.8970   -0.6610 H   0  0  0  0  0  0  0  0  0  0  0  0
   -2.2690    2.0640    1.6670 H   0  0  0  0  0  0  0  0  0  0  0  0
   -4.1880   -3.2360   -2.0290 H   0  0  0  0  0  0  0  0  0  0  0  0
   -3.9720   -3.3030   -0.2610 H   0  0  0  0  0  0  0  0  0  0  0  0
   -2.3430   -1.7350   -1.1380 H   0  0  0  0  0  0  0  0  0  0  0  0
   -3.5900   -0.8920   -2.0850 H   0  0  0  0  0  0  0  0  0  0  0  0
   -5.9760   -1.4570   -1.6400 H   0  0  0  0  0  0  0  0  0  0  0  0
   -6.3980   -3.0770   -1.0310 H   0  0  0  0  0  0  0  0  0  0  0  0
   -5.7900   -2.4600    1.2300 H   0  0  0  0  0  0  0  0  0  0  0  0
   -6.8620   -1.1910    0.6020 H   0  0  0  0  0  0  0  0  0  0  0  0
   -5.8940    0.1950    2.4210 H   0  0  0  0  0  0  0  0  0  0  0  0
   -2.2790    1.3260   -2.2450 H   0  0  0  0  0  0  0  0  0  0  0  0
   -1.2980    2.4820   -1.2950 H   0  0  0  0  0  0  0  0  0  0  0  0
    0.4160    1.7770   -2.7430 H   0  0  0  0  0  0  0  0  0  0  0  0
   -0.3780    0.2000   -3.0680 H   0  0  0  0  0  0  0  0  0  0  0  0
    3.9950   -0.7440    0.4660 H   0  0  0  0  0  0  0  0  0  0  0  0
    4.0310   -0.4980   -1.2940 H   0  0  0  0  0  0  0  0  0  0  0  0
    1.9580   -0.7010   -2.5190 H   0  0  0  0  0  0  0  0  0  0  0  0
    0.6580   -1.7230   -1.8520 H   0  0  0  0  0  0  0  0  0  0  0  0
    1.9260   -3.4060   -1.0410 H   0  0  0  0  0  0  0  0  0  0  0  0
    3.4470   -2.7380   -1.6800 H   0  0  0  0  0  0  0  0  0  0  0  0
    3.9580   -5.0630   -0.4180 H   0  0  0  0  0  0  0  0  0  0  0  0
    5.6070   -4.3550    1.7630 H   0  0  0  0  0  0  0  0  0  0  0  0
    4.0860   -5.0240    2.4030 H   0  0  0  0  0  0  0  0  0  0  0  0
    5.1210   -6.0170    1.3490 H   0  0  0  0  0  0  0  0  0  0  0  0
 11 19  1  0  0  0  0
 18 19  1  0  0  0  0
 11 20  2  0  0  0  0
  2 20  1  0  0  0  0
 11 14  1  0  0  0  0
  2 10  2  0  0  0  0
 12 18  1  0  0  0  0
 12 13  1  0  0  0  0
 14 17  2  0  0  0  0
 13 14  1  0  0  0  0
 10 17  1  0  0  0  0
 16 21  1  0  0  0  0
 21 22  1  0  0  0  0
 16 17  1  0  0  0  0
  9 16  1  0  0  0  0
  8 22  1  0  0  0  0
  8  9  1  0  0  0  0
  9 15  2  0  0  0  0
  8 26  1  0  0  0  0
  8 23  1  0  0  0  0
  1 26  1  0  0  0  0
 28 29  2  0  0  0  0
 27 28  1  0  0  0  0
 28 30  1  0  0  0  0
 30 31  1  0  0  0  0
  7 23  2  0  0  0  0
  6  7  1  0  0  0  0
  3 23  1  0  0  0  0
  1 27  1  0  0  0  0
  1 25  1  0  0  0  0
  6 24  1  0  0  0  0
  5  6  2  0  0  0  0
  3 25  1  0  0  0  0
  3  4  2  0  0  0  0
  4  5  1  0  0  0  0
  4 32  1  0  0  0  0
  5 33  1  0  0  0  0
  7 34  1  0  0  0  0
 10 35  1  0  0  0  0
 12 36  1  0  0  0  0
 12 37  1  0  0  0  0
 13 38  1  0  0  0  0
 13 39  1  0  0  0  0
 18 40  1  0  0  0  0
 18 41  1  0  0  0  0
 19 42  1  0  0  0  0
 19 43  1  0  0  0  0
 20 44  1  0  0  0  0
 21 45  1  0  0  0  0
 21 46  1  0  0  0  0
 22 47  1  0  0  0  0
 22 48  1  0  0  0  0
 25 49  1  0  0  0  0
 25 50  1  0  0  0  0
 26 51  1  0  0  0  0
 26 52  1  0  0  0  0
 27 53  1  0  0  0  0
 27 54  1  0  0  0  0
 30 55  1  0  0  0  0
 31 56  1  0  0  0  0
 31 57  1  0  0  0  0
 31 58  1  0  0  0  0
M  END
> <OPENEYE_ISO_SMILES>
CNC(=O)C[N@]1Cc2ccc(cc2[C@]3(C1)CCN(C3=O)c4cncc5c4CCCC5)Cl

> <OPENEYE_INCHI>
InChI=1S/C24H27ClN4O2/c1-26-22(30)14-28-13-17-6-7-18(25)10-20(17)24(15-28)8-9-29(23(24)31)21-12-27-11-16-4-2-3-5-19(16)21/h6-7,10-12H,2-5,8-9,13-15H2,1H3,(H,26,30)/t24-/m1/s1

> <OPENEYE_INCHIKEY>
HGSRDUTVEZMNMN-XMMPIXPASA-N

> <FORMULA>
C24H27ClN4O2

$$$$
