RZU
  -OEChem-05102419333D

 57 62  0     1  0  0  0  0  0999 V2000
   -2.4690    0.5670    0.1090 N   0  0  0  0  0  0  0  0  0  0  0  0
    3.6290    3.7030    0.0530 N   0  0  0  0  0  0  0  0  0  0  0  0
   -2.7780    2.4260    1.8430 C   0  0  0  0  0  0  0  0  0  0  0  0
   -1.6820    0.4830   -1.1200 C   0  0  0  0  0  0  0  0  0  0  0  0
   -0.4320   -0.3600   -0.9100 C   0  0  2  0  0  0  0  0  0  0  0  0
    0.2650   -0.6170   -2.2620 C   0  0  0  0  0  0  0  0  0  0  0  0
    1.3040    0.5270   -2.3000 C   0  0  0  0  0  0  0  0  0  0  0  0
    2.6540    1.6130   -0.4520 C   0  0  0  0  0  0  0  0  0  0  0  0
    4.9370    1.7690    0.3650 C   0  0  0  0  0  0  0  0  0  0  0  0
    6.2480   -0.2040    0.6740 C   0  0  0  0  0  0  0  0  0  0  0  0
    4.0000   -0.4240   -0.1340 C   0  0  0  0  0  0  0  0  0  0  0  0
   -0.0380   -2.8050   -0.5250 C   0  0  0  0  0  0  0  0  0  0  0  0
   -0.3520   -3.9980    0.1070 C   0  0  0  0  0  0  0  0  0  0  0  0
   -1.3930   -4.0550    1.0190 C   0  0  0  0  0  0  0  0  0  0  0  0
   -1.8340   -1.7280    0.6500 C   0  0  0  0  0  0  0  0  0  0  0  0
   -3.3750   -0.4540    1.8620 O   0  0  0  0  0  0  0  0  0  0  0  0
   -2.6110   -0.5000    0.9170 C   0  0  0  0  0  0  0  0  0  0  0  0
   -3.1070    1.8350    0.4700 C   0  0  0  0  0  0  0  0  0  0  0  0
   -2.2120    3.0720    0.5760 C   0  0  0  0  0  0  0  0  0  0  0  0
   -4.5060    2.0310   -0.0540 C   0  0  0  0  0  0  0  0  0  0  0  0
   -5.1760    2.9630    0.3380 O   0  0  0  0  0  0  0  0  0  0  0  0
   -5.0140    1.1700   -0.9580 N   0  0  0  0  0  0  0  0  0  0  0  0
   -6.3310    1.4190   -1.5480 C   0  0  0  0  0  0  0  0  0  0  0  0
   -2.1340   -2.9240    1.2960 C   0  0  0  0  0  0  0  0  0  0  0  0
    0.5660   -5.4290   -0.2460 Cl  0  0  0  0  0  0  0  0  0  0  0  0
   -0.7670   -1.6680   -0.2520 C   0  0  0  0  0  0  0  0  0  0  0  0
    0.5870    0.3960   -0.0940 C   0  0  0  0  0  0  0  0  0  0  0  0
    0.5420    0.5470    1.1090 O   0  0  0  0  0  0  0  0  0  0  0  0
    1.5540    0.8770   -0.8960 N   0  0  0  0  0  0  0  0  0  0  0  0
    3.8540    0.9680   -0.0790 C   0  0  0  0  0  0  0  0  0  0  0  0
    5.1830   -0.9900    0.2380 C   0  0  0  0  0  0  0  0  0  0  0  0
    6.1400    1.1520    0.7410 C   0  0  0  0  0  0  0  0  0  0  0  0
    4.7690    3.1630    0.4130 C   0  0  0  0  0  0  0  0  0  0  0  0
    2.5950    2.9890   -0.3670 C   0  0  0  0  0  0  0  0  0  0  0  0
   -3.5730    2.9570    2.3660 H   0  0  0  0  0  0  0  0  0  0  0  0
   -2.0860    1.8710    2.4770 H   0  0  0  0  0  0  0  0  0  0  0  0
   -2.2900    0.0320   -1.9050 H   0  0  0  0  0  0  0  0  0  0  0  0
   -1.3880    1.4870   -1.4270 H   0  0  0  0  0  0  0  0  0  0  0  0
    0.7560   -1.5900   -2.2700 H   0  0  0  0  0  0  0  0  0  0  0  0
   -0.4410   -0.5310   -3.0880 H   0  0  0  0  0  0  0  0  0  0  0  0
    2.2240    0.1860   -2.7740 H   0  0  0  0  0  0  0  0  0  0  0  0
    0.9000    1.3860   -2.8360 H   0  0  0  0  0  0  0  0  0  0  0  0
    7.1740   -0.6780    0.9640 H   0  0  0  0  0  0  0  0  0  0  0  0
    3.1830   -1.0450   -0.4710 H   0  0  0  0  0  0  0  0  0  0  0  0
    0.7770   -2.7670   -1.2320 H   0  0  0  0  0  0  0  0  0  0  0  0
   -1.6260   -4.9870    1.5130 H   0  0  0  0  0  0  0  0  0  0  0  0
   -2.6360    4.0270    0.2660 H   0  0  0  0  0  0  0  0  0  0  0  0
   -1.1490    2.9420    0.3760 H   0  0  0  0  0  0  0  0  0  0  0  0
   -4.5070    0.3850   -1.2180 H   0  0  0  0  0  0  0  0  0  0  0  0
   -7.0830    1.4470   -0.7600 H   0  0  0  0  0  0  0  0  0  0  0  0
   -6.3190    2.3750   -2.0720 H   0  0  0  0  0  0  0  0  0  0  0  0
   -6.5710    0.6220   -2.2520 H   0  0  0  0  0  0  0  0  0  0  0  0
   -2.9420   -2.9670    2.0110 H   0  0  0  0  0  0  0  0  0  0  0  0
    5.2960   -2.0630    0.1940 H   0  0  0  0  0  0  0  0  0  0  0  0
    6.9750    1.7470    1.0800 H   0  0  0  0  0  0  0  0  0  0  0  0
    5.5810    3.7910    0.7470 H   0  0  0  0  0  0  0  0  0  0  0  0
    1.6840    3.4950   -0.6490 H   0  0  0  0  0  0  0  0  0  0  0  0
 10 32  2  0  0  0  0
  9 32  1  0  0  0  0
  9 33  2  0  0  0  0
  2 33  1  0  0  0  0
 10 31  1  0  0  0  0
  9 30  1  0  0  0  0
  2 34  2  0  0  0  0
 11 31  2  0  0  0  0
 11 30  1  0  0  0  0
  8 30  2  0  0  0  0
  8 34  1  0  0  0  0
  7 29  1  0  0  0  0
  6  7  1  0  0  0  0
  8 29  1  0  0  0  0
 27 29  1  0  0  0  0
  5  6  1  0  0  0  0
  5 27  1  0  0  0  0
 27 28  2  0  0  0  0
  4  5  1  0  0  0  0
  5 26  1  0  0  0  0
  1  4  1  0  0  0  0
  3 18  1  0  0  0  0
  3 19  1  0  0  0  0
 20 21  2  0  0  0  0
 22 23  1  0  0  0  0
 20 22  1  0  0  0  0
 18 20  1  0  0  0  0
  1 18  1  0  0  0  0
 18 19  1  0  0  0  0
 12 26  2  0  0  0  0
 15 26  1  0  0  0  0
 12 13  1  0  0  0  0
  1 17  1  0  0  0  0
 15 17  1  0  0  0  0
 15 24  2  0  0  0  0
 16 17  2  0  0  0  0
 13 25  1  0  0  0  0
 13 14  2  0  0  0  0
 14 24  1  0  0  0  0
  3 35  1  0  0  0  0
  3 36  1  0  0  0  0
  4 37  1  0  0  0  0
  4 38  1  0  0  0  0
  6 39  1  0  0  0  0
  6 40  1  0  0  0  0
  7 41  1  0  0  0  0
  7 42  1  0  0  0  0
 10 43  1  0  0  0  0
 11 44  1  0  0  0  0
 12 45  1  0  0  0  0
 14 46  1  0  0  0  0
 19 47  1  0  0  0  0
 19 48  1  0  0  0  0
 22 49  1  0  0  0  0
 23 50  1  0  0  0  0
 23 51  1  0  0  0  0
 23 52  1  0  0  0  0
 24 53  1  0  0  0  0
 31 54  1  0  0  0  0
 32 55  1  0  0  0  0
 33 56  1  0  0  0  0
 34 57  1  0  0  0  0
M  END
> <OPENEYE_ISO_SMILES>
CNC(=O)C1(CC1)N2C[C@]3(CCN(C3=O)c4cncc5c4cccc5)c6cc(ccc6C2=O)Cl

> <OPENEYE_INCHI>
InChI=1S/C26H23ClN4O3/c1-28-23(33)26(8-9-26)31-15-25(20-12-17(27)6-7-19(20)22(31)32)10-11-30(24(25)34)21-14-29-13-16-4-2-3-5-18(16)21/h2-7,12-14H,8-11,15H2,1H3,(H,28,33)/t25-/m1/s1

> <OPENEYE_INCHIKEY>
FLEUPKADUSMVNQ-RUZDIDTESA-N

> <FORMULA>
C26H23ClN4O3

$$$$
