7KX5_ligand1
 OpenBabel04052409413D

 65 69  0  0  1  0  0  0  0  0999 V2000
    5.8185    0.5881   19.7201 C   0  0  0  0  0  0  0  0  0  0  0  0
    6.6414    0.3214   18.5985 C   0  0  0  0  0  0  0  0  0  0  0  0
    5.1279    1.1623   17.0927 C   0  0  0  0  0  0  0  0  0  0  0  0
    4.1814    1.3525   18.1009 C   0  0  0  0  0  0  0  0  0  0  0  0
    8.2482    3.4371   22.3474 C   0  0  1  0  0  0  0  0  0  0  0  0
    7.6652    4.6319   23.1108 C   0  0  0  0  0  0  0  0  0  0  0  0
    9.4515    2.8170   23.0556 C   0  0  0  0  0  0  0  0  0  0  0  0
   10.7142    2.7835   22.4244 C   0  0  0  0  0  0  0  0  0  0  0  0
   11.7997    2.1180   23.0245 C   0  0  0  0  0  0  0  0  0  0  0  0
   11.6288    1.4889   24.2696 C   0  0  0  0  0  0  0  0  0  0  0  0
   10.3826    1.5425   24.9212 C   0  0  0  0  0  0  0  0  0  0  0  0
    9.2953    2.1971   24.3142 C   0  0  0  0  0  0  0  0  0  0  0  0
    9.0260   -1.3396   24.2247 C   0  0  0  0  0  0  0  0  0  0  0  0
   10.1903   -1.7824   23.5551 C   0  0  0  0  0  0  0  0  0  0  0  0
   11.3880   -2.1412   24.3157 C   0  0  0  0  0  0  0  0  0  0  0  0
   12.6840   -1.8772   23.8206 C   0  0  0  0  0  0  0  0  0  0  0  0
   13.8146   -2.2393   24.5704 C   0  0  0  0  0  0  0  0  0  0  0  0
   13.6652   -2.8602   25.8215 C   0  0  0  0  0  0  0  0  0  0  0  0
    5.0281   -2.0555   20.1471 O   0  0  0  0  0  0  0  0  0  0  0  0
    5.9252   -2.1476   20.9774 C   0  0  0  0  0  0  0  0  0  0  0  0
    6.2188   -3.5336   21.4507 C   0  0  0  0  0  0  0  0  0  0  0  0
    6.9790   -4.0952   22.4521 C   0  0  0  0  0  0  0  0  0  0  0  0
    6.8348   -5.5018   22.3514 C   0  0  0  0  0  0  0  0  0  0  0  0
    5.9280   -5.7043   21.3590 C   0  0  0  0  0  0  0  0  0  0  0  0
    5.5677   -4.5327   20.7906 O   0  0  0  0  0  0  0  0  0  0  0  0
    6.6446   -1.0652   21.3967 N   0  0  0  0  0  0  0  0  0  0  0  0
    6.2522    0.3534   21.1348 C   0  0  1  0  0  0  0  0  0  0  0  0
    6.3423    0.6627   17.3341 N   0  0  0  0  0  0  0  0  0  0  0  0
    4.5367    1.0945   19.4324 C   0  0  0  0  0  0  0  0  0  0  0  0
    7.3975    1.4003   21.2589 C   0  0  0  0  0  0  0  0  0  0  0  0
    7.2092    2.4419   22.0835 N   0  0  0  0  0  0  0  0  0  0  0  0
    8.4464    1.2695   20.6228 O   0  0  0  0  0  0  0  0  0  0  0  0
    7.8347   -1.2632   22.1218 C   0  0  0  0  0  0  0  0  0  0  0  0
    7.8526   -1.0575   23.5120 C   0  0  0  0  0  0  0  0  0  0  0  0
   12.3802   -3.1162   26.3224 C   0  0  0  0  0  0  0  0  0  0  0  0
   11.2508   -2.7732   25.5684 C   0  0  0  0  0  0  0  0  0  0  0  0
   10.1759   -1.9011   22.1502 C   0  0  0  0  0  0  0  0  0  0  0  0
    8.9982   -1.6550   21.4350 C   0  0  0  0  0  0  0  0  0  0  0  0
    7.6089   -0.1359   18.7293 H   0  0  0  0  0  0  0  0  0  0  0  0
    4.9038    1.4136   16.0720 H   0  0  0  0  0  0  0  0  0  0  0  0
    3.2005    1.6944   17.8395 H   0  0  0  0  0  0  0  0  0  0  0  0
    8.5760    3.8173   21.3830 H   0  0  0  0  0  0  0  0  0  0  0  0
    6.8401    5.0820   22.5597 H   0  0  0  0  0  0  0  0  0  0  0  0
    7.2899    4.3388   24.0915 H   0  0  0  0  0  0  0  0  0  0  0  0
    8.4206    5.4034   23.2597 H   0  0  0  0  0  0  0  0  0  0  0  0
   10.8571    3.2325   21.4580 H   0  0  0  0  0  0  0  0  0  0  0  0
   12.7552    2.0775   22.5250 H   0  0  0  0  0  0  0  0  0  0  0  0
   12.4558    0.9665   24.7267 H   0  0  0  0  0  0  0  0  0  0  0  0
   10.2542    1.0616   25.8806 H   0  0  0  0  0  0  0  0  0  0  0  0
    8.3346    2.2025   24.8076 H   0  0  0  0  0  0  0  0  0  0  0  0
    9.0221   -1.2150   25.2970 H   0  0  0  0  0  0  0  0  0  0  0  0
   12.8203   -1.3913   22.8658 H   0  0  0  0  0  0  0  0  0  0  0  0
   14.7969   -2.0403   24.1892 H   0  0  0  0  0  0  0  0  0  0  0  0
   14.5267   -3.1281   26.4106 H   0  0  0  0  0  0  0  0  0  0  0  0
    7.6017   -3.5940   23.1712 H   0  0  0  0  0  0  0  0  0  0  0  0
    7.3146   -6.2622   22.9409 H   0  0  0  0  0  0  0  0  0  0  0  0
    5.4463   -6.5643   20.9401 H   0  0  0  0  0  0  0  0  0  0  0  0
    5.4541    0.6087   21.8347 H   0  0  0  0  0  0  0  0  0  0  0  0
    3.8281    1.2822   20.2245 H   0  0  0  0  0  0  0  0  0  0  0  0
    6.3389    2.5214   22.5886 H   0  0  0  0  0  0  0  0  0  0  0  0
    6.9636   -0.7319   24.0320 H   0  0  0  0  0  0  0  0  0  0  0  0
   12.2469   -3.5521   27.2975 H   0  0  0  0  0  0  0  0  0  0  0  0
   10.2737   -2.9971   25.9693 H   0  0  0  0  0  0  0  0  0  0  0  0
   11.0563   -2.2218   21.6143 H   0  0  0  0  0  0  0  0  0  0  0  0
    8.9844   -1.7727   20.3643 H   0  0  0  0  0  0  0  0  0  0  0  0
  1  2  2  0  0  0  0
  1 27  1  0  0  0  0
  1 29  1  0  0  0  0
  2 28  1  0  0  0  0
  2 39  1  0  0  0  0
  3  4  1  0  0  0  0
  3 28  2  0  0  0  0
  3 40  1  0  0  0  0
  4 29  2  0  0  0  0
  4 41  1  0  0  0  0
  5  6  1  0  0  0  0
  5  7  1  0  0  0  0
  5 31  1  0  0  0  0
  5 42  1  6  0  0  0
  6 43  1  0  0  0  0
  6 44  1  0  0  0  0
  6 45  1  0  0  0  0
  7  8  2  0  0  0  0
  7 12  1  0  0  0  0
  8  9  1  0  0  0  0
  8 46  1  0  0  0  0
  9 10  2  0  0  0  0
  9 47  1  0  0  0  0
 10 11  1  0  0  0  0
 10 48  1  0  0  0  0
 11 12  2  0  0  0  0
 11 49  1  0  0  0  0
 12 50  1  0  0  0  0
 13 14  2  0  0  0  0
 13 34  1  0  0  0  0
 13 51  1  0  0  0  0
 14 15  1  0  0  0  0
 14 37  1  0  0  0  0
 15 16  2  0  0  0  0
 15 36  1  0  0  0  0
 16 17  1  0  0  0  0
 16 52  1  0  0  0  0
 17 18  2  0  0  0  0
 17 53  1  0  0  0  0
 18 35  1  0  0  0  0
 18 54  1  0  0  0  0
 19 20  2  0  0  0  0
 20 21  1  0  0  0  0
 20 26  1  0  0  0  0
 21 22  2  0  0  0  0
 21 25  1  0  0  0  0
 22 23  1  0  0  0  0
 22 55  1  0  0  0  0
 23 24  2  0  0  0  0
 23 56  1  0  0  0  0
 24 25  1  0  0  0  0
 24 57  1  0  0  0  0
 26 27  1  0  0  0  0
 26 33  1  0  0  0  0
 27 30  1  0  0  0  0
 27 58  1  1  0  0  0
 29 59  1  0  0  0  0
 30 31  1  0  0  0  0
 30 32  2  0  0  0  0
 31 60  1  0  0  0  0
 33 34  2  0  0  0  0
 33 38  1  0  0  0  0
 34 61  1  0  0  0  0
 35 36  2  0  0  0  0
 35 62  1  0  0  0  0
 36 63  1  0  0  0  0
 37 38  2  0  0  0  0
 37 64  1  0  0  0  0
 38 65  1  0  0  0  0
M  END
$$$$
