7L0D_ligand1
 OpenBabel04052409413D

 63 65  0  0  1  0  0  0  0  0999 V2000
    5.2246   -2.0664   21.8862 O   0  0  0  0  0  0  0  0  0  0  0  0
    6.4018   -2.2559   22.1864 C   0  0  0  0  0  0  0  0  0  0  0  0
    6.8024   -3.6749   22.3261 C   0  0  0  0  0  0  0  0  0  0  0  0
    7.7675   -4.3363   23.0411 C   0  0  0  0  0  0  0  0  0  0  0  0
    7.5570   -5.7253   22.8288 C   0  0  0  0  0  0  0  0  0  0  0  0
    6.4591   -5.8224   22.0288 C   0  0  0  0  0  0  0  0  0  0  0  0
    5.9961   -4.5901   21.7087 O   0  0  0  0  0  0  0  0  0  0  0  0
    7.2795   -1.2212   22.3525 N   0  0  0  0  0  0  0  0  0  0  0  0
    8.5693   -1.3917   22.9006 C   0  0  0  0  0  0  0  0  0  0  0  0
    9.6706   -1.6281   22.0599 C   0  0  0  0  0  0  0  0  0  0  0  0
   10.9670   -1.6906   22.6002 C   0  0  0  0  0  0  0  0  0  0  0  0
   11.1719   -1.5257   23.9914 C   0  0  0  0  0  0  0  0  0  0  0  0
   12.5577   -1.6197   24.6372 C   0  0  0  0  0  0  0  0  0  0  0  0
   12.8721   -0.3058   25.3813 C   0  0  0  0  0  0  0  0  0  0  0  0
   12.5473   -2.7964   25.6322 C   0  0  0  0  0  0  0  0  0  0  0  0
   13.6919   -1.8457   23.6157 C   0  0  0  0  0  0  0  0  0  0  0  0
   10.0494   -1.2923   24.8183 C   0  0  0  0  0  0  0  0  0  0  0  0
    8.7553   -1.2208   24.2828 C   0  0  0  0  0  0  0  0  0  0  0  0
    6.8159    0.1755   22.1395 C   0  0  1  0  0  0  0  0  0  0  0  0
    7.8316    1.3334   22.3077 C   0  0  0  0  0  0  0  0  0  0  0  0
    7.5813    2.1815   23.3223 N   0  0  0  0  0  0  0  0  0  0  0  0
    8.3265    3.3837   23.7081 C   0  0  0  0  0  0  0  0  0  0  0  0
    9.8309    3.0823   23.8908 C   0  0  0  0  0  0  0  0  0  0  0  0
    8.1188    4.4849   22.6532 C   0  0  0  0  0  0  0  0  0  0  0  0
    7.7454    3.8675   25.0472 C   0  0  0  0  0  0  0  0  0  0  0  0
    8.7776    1.4690   21.5292 O   0  0  0  0  0  0  0  0  0  0  0  0
    6.3537    0.3332   20.7342 C   0  0  0  0  0  0  0  0  0  0  0  0
    5.0519    0.7967   20.5001 C   0  0  0  0  0  0  0  0  0  0  0  0
    4.5554    0.7897   19.1990 C   0  0  0  0  0  0  0  0  0  0  0  0
    5.3937    0.3902   18.1443 C   0  0  0  0  0  0  0  0  0  0  0  0
    6.6634   -0.0086   18.3317 N   0  0  0  0  0  0  0  0  0  0  0  0
    7.1159   -0.0497   19.5997 C   0  0  0  0  0  0  0  0  0  0  0  0
    8.5326   -3.8942   23.6586 H   0  0  0  0  0  0  0  0  0  0  0  0
    8.1267   -6.5492   23.2287 H   0  0  0  0  0  0  0  0  0  0  0  0
    5.8915   -6.6405   21.6210 H   0  0  0  0  0  0  0  0  0  0  0  0
    9.5172   -1.7399   21.0002 H   0  0  0  0  0  0  0  0  0  0  0  0
   11.7851   -1.8709   21.9196 H   0  0  0  0  0  0  0  0  0  0  0  0
   13.8470   -0.3629   25.8622 H   0  0  0  0  0  0  0  0  0  0  0  0
   12.8895    0.5439   24.6972 H   0  0  0  0  0  0  0  0  0  0  0  0
   12.1460   -0.0821   26.1627 H   0  0  0  0  0  0  0  0  0  0  0  0
   13.5386   -2.9967   26.0391 H   0  0  0  0  0  0  0  0  0  0  0  0
   11.8770   -2.6134   26.4698 H   0  0  0  0  0  0  0  0  0  0  0  0
   12.1805   -3.7034   25.1583 H   0  0  0  0  0  0  0  0  0  0  0  0
   14.6492   -1.9547   24.1239 H   0  0  0  0  0  0  0  0  0  0  0  0
   13.5436   -2.7518   23.0335 H   0  0  0  0  0  0  0  0  0  0  0  0
   13.7853   -1.0109   22.9195 H   0  0  0  0  0  0  0  0  0  0  0  0
   10.1668   -1.1626   25.8804 H   0  0  0  0  0  0  0  0  0  0  0  0
    7.9136   -1.0217   24.9284 H   0  0  0  0  0  0  0  0  0  0  0  0
    5.9938    0.3478   22.8380 H   0  0  0  0  0  0  0  0  0  0  0  0
    6.7738    1.9744   23.8918 H   0  0  0  0  0  0  0  0  0  0  0  0
   10.3647    3.9731   24.2178 H   0  0  0  0  0  0  0  0  0  0  0  0
    9.9948    2.3040   24.6366 H   0  0  0  0  0  0  0  0  0  0  0  0
   10.3173    2.7678   22.9691 H   0  0  0  0  0  0  0  0  0  0  0  0
    8.6167    5.4115   22.9408 H   0  0  0  0  0  0  0  0  0  0  0  0
    8.5307    4.1832   21.6961 H   0  0  0  0  0  0  0  0  0  0  0  0
    7.0615    4.7061   22.5049 H   0  0  0  0  0  0  0  0  0  0  0  0
    8.2351    4.7813   25.3841 H   0  0  0  0  0  0  0  0  0  0  0  0
    6.6787    4.0799   24.9674 H   0  0  0  0  0  0  0  0  0  0  0  0
    7.8750    3.1193   25.8307 H   0  0  0  0  0  0  0  0  0  0  0  0
    4.4145    1.1006   21.3158 H   0  0  0  0  0  0  0  0  0  0  0  0
    3.5361    1.0898   19.0351 H   0  0  0  0  0  0  0  0  0  0  0  0
    5.0328    0.3913   17.1283 H   0  0  0  0  0  0  0  0  0  0  0  0
    8.1223   -0.4210   19.7156 H   0  0  0  0  0  0  0  0  0  0  0  0
  1  2  2  0  0  0  0
  2  3  1  0  0  0  0
  2  8  1  0  0  0  0
  3  4  2  0  0  0  0
  3  7  1  0  0  0  0
  4  5  1  0  0  0  0
  4 33  1  0  0  0  0
  5  6  2  0  0  0  0
  5 34  1  0  0  0  0
  6  7  1  0  0  0  0
  6 35  1  0  0  0  0
  8  9  1  0  0  0  0
  8 19  1  0  0  0  0
  9 10  2  0  0  0  0
  9 18  1  0  0  0  0
 10 11  1  0  0  0  0
 10 36  1  0  0  0  0
 11 12  2  0  0  0  0
 11 37  1  0  0  0  0
 12 13  1  0  0  0  0
 12 17  1  0  0  0  0
 13 14  1  0  0  0  0
 13 15  1  0  0  0  0
 13 16  1  0  0  0  0
 14 38  1  0  0  0  0
 14 39  1  0  0  0  0
 14 40  1  0  0  0  0
 15 41  1  0  0  0  0
 15 42  1  0  0  0  0
 15 43  1  0  0  0  0
 16 44  1  0  0  0  0
 16 45  1  0  0  0  0
 16 46  1  0  0  0  0
 17 18  2  0  0  0  0
 17 47  1  0  0  0  0
 18 48  1  0  0  0  0
 19 20  1  0  0  0  0
 19 27  1  0  0  0  0
 19 49  1  1  0  0  0
 20 21  1  0  0  0  0
 20 26  2  0  0  0  0
 21 22  1  0  0  0  0
 21 50  1  0  0  0  0
 22 23  1  0  0  0  0
 22 24  1  0  0  0  0
 22 25  1  0  0  0  0
 23 51  1  0  0  0  0
 23 52  1  0  0  0  0
 23 53  1  0  0  0  0
 24 54  1  0  0  0  0
 24 55  1  0  0  0  0
 24 56  1  0  0  0  0
 25 57  1  0  0  0  0
 25 58  1  0  0  0  0
 25 59  1  0  0  0  0
 27 28  2  0  0  0  0
 27 32  1  0  0  0  0
 28 29  1  0  0  0  0
 28 60  1  0  0  0  0
 29 30  2  0  0  0  0
 29 61  1  0  0  0  0
 30 31  1  0  0  0  0
 30 62  1  0  0  0  0
 31 32  2  0  0  0  0
 32 63  1  0  0  0  0
M  END
$$$$
