7L10_ligand1
 OpenBabel04052409413D

 42 45  0  0  0  0  0  0  0  0999 V2000
   13.0631   -1.1070   23.1773 C   0  0  0  0  0  0  0  0  0  0  0  0
   11.7576   -1.5327   22.8755 C   0  0  0  0  0  0  0  0  0  0  0  0
    9.3377   -1.0451   22.4925 C   0  0  0  0  0  0  0  0  0  0  0  0
   10.9713    0.7661   23.0942 C   0  0  0  0  0  0  0  0  0  0  0  0
    8.8323   -2.1799   23.0343 C   0  0  0  0  0  0  0  0  0  0  0  0
    6.6130   -0.3107   20.0690 C   0  0  0  0  0  0  0  0  0  0  0  0
    6.9335   -3.8731   23.4001 C   0  0  0  0  0  0  0  0  0  0  0  0
    5.3225    0.1676   20.3567 C   0  0  0  0  0  0  0  0  0  0  0  0
    4.5841    0.7641   19.3223 C   0  0  0  0  0  0  0  0  0  0  0  0
    5.1659    0.8406   18.0420 C   0  0  0  0  0  0  0  0  0  0  0  0
    7.1155   -0.1545   18.7598 C   0  0  0  0  0  0  0  0  0  0  0  0
    7.5263   -2.7138   22.6770 C   0  0  0  0  0  0  0  0  0  0  0  0
    6.1509   -4.8992   22.7882 C   0  0  0  0  0  0  0  0  0  0  0  0
    5.5706   -5.9103   23.5831 C   0  0  0  0  0  0  0  0  0  0  0  0
    5.7734   -5.9323   24.9729 C   0  0  0  0  0  0  0  0  0  0  0  0
    6.5784   -4.9542   25.5782 C   0  0  0  0  0  0  0  0  0  0  0  0
    7.1544   -3.9361   24.7955 C   0  0  0  0  0  0  0  0  0  0  0  0
    5.9572   -5.0053   21.3517 C   0  0  0  0  0  0  0  0  0  0  0  0
   13.3269    0.2513   23.4366 C   0  0  0  0  0  0  0  0  0  0  0  0
   10.7045   -0.5982   22.8322 C   0  0  0  0  0  0  0  0  0  0  0  0
   12.2814    1.1927   23.3745 C   0  0  0  0  0  0  0  0  0  0  0  0
    8.5729   -0.3365   21.4554 C   0  0  0  0  0  0  0  0  0  0  0  0
    6.8684   -2.0439   21.7113 C   0  0  0  0  0  0  0  0  0  0  0  0
    7.3977   -0.9093   21.0792 N   0  0  0  0  0  0  0  0  0  0  0  0
    6.4060    0.4052   17.7651 N   0  0  0  0  0  0  0  0  0  0  0  0
    5.8027   -5.0893   20.2112 N   0  0  0  0  0  0  0  0  0  0  0  0
    8.9499    0.7232   20.9499 O   0  0  0  0  0  0  0  0  0  0  0  0
   14.3359   -2.2642   23.2234 Cl  0  0  0  0  0  0  0  0  0  0  0  0
   12.6018    2.8699   23.6115 Cl  0  0  0  0  0  0  0  0  0  0  0  0
   11.5763   -2.5756   22.6621 H   0  0  0  0  0  0  0  0  0  0  0  0
   10.1781    1.4980   23.0616 H   0  0  0  0  0  0  0  0  0  0  0  0
    9.4299   -2.7247   23.7518 H   0  0  0  0  0  0  0  0  0  0  0  0
    4.9180    0.0844   21.3536 H   0  0  0  0  0  0  0  0  0  0  0  0
    3.5918    1.1435   19.5108 H   0  0  0  0  0  0  0  0  0  0  0  0
    4.6459    1.2591   17.1994 H   0  0  0  0  0  0  0  0  0  0  0  0
    8.1101   -0.4891   18.5030 H   0  0  0  0  0  0  0  0  0  0  0  0
    4.9703   -6.6866   23.1307 H   0  0  0  0  0  0  0  0  0  0  0  0
    5.3300   -6.7119   25.5756 H   0  0  0  0  0  0  0  0  0  0  0  0
    6.7436   -4.9774   26.6449 H   0  0  0  0  0  0  0  0  0  0  0  0
    7.7405   -3.1787   25.2932 H   0  0  0  0  0  0  0  0  0  0  0  0
   14.3339    0.5753   23.6541 H   0  0  0  0  0  0  0  0  0  0  0  0
    5.8768   -2.3103   21.3754 H   0  0  0  0  0  0  0  0  0  0  0  0
  1  2  2  0  0  0  0
  1 19  1  0  0  0  0
  1 28  1  0  0  0  0
  2 20  1  0  0  0  0
  2 30  1  0  0  0  0
  3  5  2  0  0  0  0
  3 20  1  0  0  0  0
  3 22  1  0  0  0  0
  4 20  2  0  0  0  0
  4 21  1  0  0  0  0
  4 31  1  0  0  0  0
  5 12  1  0  0  0  0
  5 32  1  0  0  0  0
  6  8  2  0  0  0  0
  6 11  1  0  0  0  0
  6 24  1  0  0  0  0
  7 12  1  0  0  0  0
  7 13  2  0  0  0  0
  7 17  1  0  0  0  0
  8  9  1  0  0  0  0
  8 33  1  0  0  0  0
  9 10  2  0  0  0  0
  9 34  1  0  0  0  0
 10 25  1  0  0  0  0
 10 35  1  0  0  0  0
 11 25  2  0  0  0  0
 11 36  1  0  0  0  0
 12 23  2  0  0  0  0
 13 14  1  0  0  0  0
 13 18  1  0  0  0  0
 14 15  2  0  0  0  0
 14 37  1  0  0  0  0
 15 16  1  0  0  0  0
 15 38  1  0  0  0  0
 16 17  2  0  0  0  0
 16 39  1  0  0  0  0
 17 40  1  0  0  0  0
 18 26  3  0  0  0  0
 19 21  2  0  0  0  0
 19 41  1  0  0  0  0
 21 29  1  0  0  0  0
 22 24  1  0  0  0  0
 22 27  2  0  0  0  0
 23 24  1  0  0  0  0
 23 42  1  0  0  0  0
M  END
$$$$
