7L14_ligand1
 OpenBabel04052409413D

 53 57  0  0  0  0  0  0  0  0999 V2000
    7.4932   -4.1685   23.6627 C   0  0  0  0  0  0  0  0  0  0  0  0
    7.4649   -0.3849   19.0961 C   0  0  0  0  0  0  0  0  0  0  0  0
    5.4752    0.6114   18.4851 C   0  0  0  0  0  0  0  0  0  0  0  0
    7.8732   -1.1426   21.4031 N   0  0  0  0  0  0  0  0  0  0  0  0
    7.0447   -0.5240   20.4367 C   0  0  0  0  0  0  0  0  0  0  0  0
   12.2723   -1.9351   23.1570 C   0  0  0  0  0  0  0  0  0  0  0  0
   13.5937   -1.5743   23.4638 C   0  0  0  0  0  0  0  0  0  0  0  0
   13.9337   -0.2214   23.6154 C   0  0  0  0  0  0  0  0  0  0  0  0
   12.9604    0.7849   23.4809 C   0  0  0  0  0  0  0  0  0  0  0  0
   12.4432    3.1325   23.5575 C   0  0  0  0  0  0  0  0  0  0  0  0
   13.1745    4.4441   23.7482 C   0  0  0  0  0  0  0  0  0  0  0  0
   11.6218    0.4153   23.2139 C   0  0  0  0  0  0  0  0  0  0  0  0
    7.3588   -2.2842   22.0366 C   0  0  0  0  0  0  0  0  0  0  0  0
    6.1721   -6.2327   23.8176 C   0  0  0  0  0  0  0  0  0  0  0  0
    6.4360   -6.3127   25.1954 C   0  0  0  0  0  0  0  0  0  0  0  0
   11.2751   -0.9438   23.0265 C   0  0  0  0  0  0  0  0  0  0  0  0
    9.8796   -1.3386   22.7227 C   0  0  0  0  0  0  0  0  0  0  0  0
    7.2519   -5.3476   25.8066 C   0  0  0  0  0  0  0  0  0  0  0  0
    7.7821   -4.2905   25.0444 C   0  0  0  0  0  0  0  0  0  0  0  0
    9.3735   -2.4724   23.2666 C   0  0  0  0  0  0  0  0  0  0  0  0
    9.0732   -0.5940   21.7357 C   0  0  0  0  0  0  0  0  0  0  0  0
    6.6947   -5.1757   23.0445 C   0  0  0  0  0  0  0  0  0  0  0  0
    6.4242   -5.2178   21.6164 C   0  0  0  0  0  0  0  0  0  0  0  0
   14.6079    4.5964   23.2807 C   0  0  0  0  0  0  0  0  0  0  0  0
   13.5010    5.3166   22.5626 C   0  0  0  0  0  0  0  0  0  0  0  0
    4.9765    0.5512   19.8016 C   0  0  0  0  0  0  0  0  0  0  0  0
    5.7760   -0.0324   20.7969 C   0  0  0  0  0  0  0  0  0  0  0  0
    8.0506   -2.9822   22.9533 C   0  0  0  0  0  0  0  0  0  0  0  0
    6.6970    0.1688   18.1376 N   0  0  0  0  0  0  0  0  0  0  0  0
    6.2069   -5.2509   20.4823 N   0  0  0  0  0  0  0  0  0  0  0  0
    9.4329    0.4758   21.2388 O   0  0  0  0  0  0  0  0  0  0  0  0
   13.3920    2.0810   23.6374 O   0  0  0  0  0  0  0  0  0  0  0  0
   14.7960   -2.7881   23.6580 Cl  0  0  0  0  0  0  0  0  0  0  0  0
    8.4375   -0.7338   18.7803 H   0  0  0  0  0  0  0  0  0  0  0  0
    4.8856    1.0270   17.6819 H   0  0  0  0  0  0  0  0  0  0  0  0
   12.0352   -2.9798   23.0185 H   0  0  0  0  0  0  0  0  0  0  0  0
   14.9551    0.0507   23.8232 H   0  0  0  0  0  0  0  0  0  0  0  0
   11.9520    3.1286   22.5839 H   0  0  0  0  0  0  0  0  0  0  0  0
   11.6803    3.0322   24.3319 H   0  0  0  0  0  0  0  0  0  0  0  0
   12.9317    4.9560   24.6771 H   0  0  0  0  0  0  0  0  0  0  0  0
   10.8538    1.1691   23.1460 H   0  0  0  0  0  0  0  0  0  0  0  0
    6.3507   -2.5335   21.7396 H   0  0  0  0  0  0  0  0  0  0  0  0
    5.5721   -7.0011   23.3560 H   0  0  0  0  0  0  0  0  0  0  0  0
    6.0320   -7.1273   25.7772 H   0  0  0  0  0  0  0  0  0  0  0  0
    7.4719   -5.4178   26.8623 H   0  0  0  0  0  0  0  0  0  0  0  0
    8.3955   -3.5590   25.5465 H   0  0  0  0  0  0  0  0  0  0  0  0
    9.9825   -3.0423   23.9540 H   0  0  0  0  0  0  0  0  0  0  0  0
   15.0852    3.7723   22.7556 H   0  0  0  0  0  0  0  0  0  0  0  0
   15.2701    5.2083   23.8829 H   0  0  0  0  0  0  0  0  0  0  0  0
   13.4659    6.3910   22.6958 H   0  0  0  0  0  0  0  0  0  0  0  0
   13.1963    4.9459   21.5890 H   0  0  0  0  0  0  0  0  0  0  0  0
    3.9953    0.9318   20.0434 H   0  0  0  0  0  0  0  0  0  0  0  0
    5.4299   -0.1044   21.8157 H   0  0  0  0  0  0  0  0  0  0  0  0
  1 19  2  0  0  0  0
  1 22  1  0  0  0  0
  1 28  1  0  0  0  0
  2  5  2  0  0  0  0
  2 29  1  0  0  0  0
  2 34  1  0  0  0  0
  3 26  1  0  0  0  0
  3 29  2  0  0  0  0
  3 35  1  0  0  0  0
  4  5  1  0  0  0  0
  4 13  1  0  0  0  0
  4 21  1  0  0  0  0
  5 27  1  0  0  0  0
  6  7  2  0  0  0  0
  6 16  1  0  0  0  0
  6 36  1  0  0  0  0
  7  8  1  0  0  0  0
  7 33  1  0  0  0  0
  8  9  2  0  0  0  0
  8 37  1  0  0  0  0
  9 12  1  0  0  0  0
  9 32  1  0  0  0  0
 10 11  1  0  0  0  0
 10 32  1  0  0  0  0
 10 38  1  0  0  0  0
 10 39  1  0  0  0  0
 11 24  1  0  0  0  0
 11 25  1  0  0  0  0
 11 40  1  0  0  0  0
 12 16  2  0  0  0  0
 12 41  1  0  0  0  0
 13 28  2  0  0  0  0
 13 42  1  0  0  0  0
 14 15  1  0  0  0  0
 14 22  2  0  0  0  0
 14 43  1  0  0  0  0
 15 18  2  0  0  0  0
 15 44  1  0  0  0  0
 16 17  1  0  0  0  0
 17 20  2  0  0  0  0
 17 21  1  0  0  0  0
 18 19  1  0  0  0  0
 18 45  1  0  0  0  0
 19 46  1  0  0  0  0
 20 28  1  0  0  0  0
 20 47  1  0  0  0  0
 21 31  2  0  0  0  0
 22 23  1  0  0  0  0
 23 30  3  0  0  0  0
 24 25  1  0  0  0  0
 24 48  1  0  0  0  0
 24 49  1  0  0  0  0
 25 50  1  0  0  0  0
 25 51  1  0  0  0  0
 26 27  2  0  0  0  0
 26 52  1  0  0  0  0
 27 53  1  0  0  0  0
M  END
$$$$
