XU4
  -OEChem-05102419343D

 63 64  0     1  0  0  0  0  0999 V2000
   -5.5480   -1.8280    0.9880 C   0  0  0  0  0  0  0  0  0  0  0  0
    0.0630    2.4400    0.4120 C   0  0  0  0  0  0  0  0  0  0  0  0
   -1.4020    2.2660    2.4280 C   0  0  0  0  0  0  0  0  0  0  0  0
    2.2420    0.0800    0.3840 C   0  0  0  0  0  0  0  0  0  0  0  0
    4.3950   -0.8540    0.8180 C   0  0  2  0  0  0  0  0  0  0  0  0
    5.7540   -0.7080    0.1830 C   0  0  0  0  0  0  0  0  0  0  0  0
    7.1600   -0.8140   -1.7530 C   0  0  0  0  0  0  0  0  0  0  0  0
    8.0840   -0.1890    0.3660 C   0  0  0  0  0  0  0  0  0  0  0  0
   -1.1260    0.6850   -0.8760 C   0  0  0  0  0  0  0  0  0  0  0  0
   -3.4780    0.3450   -1.4120 C   0  0  1  0  0  0  0  0  0  0  0  0
   -4.7110   -0.1190   -0.6340 C   0  0  0  0  0  0  0  0  0  0  0  0
   -4.3840   -1.4130    0.1140 C   0  0  2  0  0  0  0  0  0  0  0  0
   -4.2200   -2.5860   -0.8800 C   0  0  0  0  0  0  0  0  0  0  0  0
   -4.8360   -3.7600   -0.0870 C   0  0  0  0  0  0  0  0  0  0  0  0
   -3.8400    1.5670   -2.2590 C   0  0  0  0  0  0  0  0  0  0  0  0
   -0.0220    0.9410    0.1180 C   0  0  1  0  0  0  0  0  0  0  0  0
   -1.2470    2.9090    1.0480 C   0  0  0  0  0  0  0  0  0  0  0  0
   -1.2260    4.4320    1.1950 C   0  0  0  0  0  0  0  0  0  0  0  0
    4.1710   -2.3150    1.2120 C   0  0  0  0  0  0  0  0  0  0  0  0
    5.9150   -0.9530   -1.1680 C   0  0  0  0  0  0  0  0  0  0  0  0
    8.2440   -0.4290   -0.9860 C   0  0  0  0  0  0  0  0  0  0  0  0
    6.8380   -0.3230    0.9490 C   0  0  0  0  0  0  0  0  0  0  0  0
   -2.4120    0.6990   -0.4730 N   0  0  0  0  0  0  0  0  0  0  0  0
   -5.7820   -3.1450    0.8510 N   0  0  0  0  0  0  0  0  0  0  0  0
    1.2530    0.4790   -0.4390 N   0  0  0  0  0  0  0  0  0  0  0  0
   -0.8570    0.4660   -2.0380 O   0  0  0  0  0  0  0  0  0  0  0  0
   -6.1740   -1.0820    1.7100 O   0  0  0  0  0  0  0  0  0  0  0  0
   -4.3970    2.5790   -1.4190 O   0  0  0  0  0  0  0  0  0  0  0  0
    3.3720   -0.4450   -0.1270 O   0  0  0  0  0  0  0  0  0  0  0  0
    2.1150    0.1930    1.5870 O   0  0  0  0  0  0  0  0  0  0  0  0
    0.8890    2.6300    1.0970 H   0  0  0  0  0  0  0  0  0  0  0  0
    0.2300    2.9830   -0.5180 H   0  0  0  0  0  0  0  0  0  0  0  0
   -1.3750    1.1810    2.3290 H   0  0  0  0  0  0  0  0  0  0  0  0
   -0.5870    2.5920    3.0750 H   0  0  0  0  0  0  0  0  0  0  0  0
   -2.3540    2.5680    2.8650 H   0  0  0  0  0  0  0  0  0  0  0  0
    4.3410   -0.2250    1.7070 H   0  0  0  0  0  0  0  0  0  0  0  0
    7.2840   -1.0000   -2.8090 H   0  0  0  0  0  0  0  0  0  0  0  0
    8.9310    0.1110    0.9650 H   0  0  0  0  0  0  0  0  0  0  0  0
   -3.1360   -0.4600   -2.0640 H   0  0  0  0  0  0  0  0  0  0  0  0
   -5.0000    0.6510    0.0820 H   0  0  0  0  0  0  0  0  0  0  0  0
   -5.5320   -0.2980   -1.3270 H   0  0  0  0  0  0  0  0  0  0  0  0
   -3.4820   -1.2890    0.7140 H   0  0  0  0  0  0  0  0  0  0  0  0
   -4.7770   -2.4010   -1.7980 H   0  0  0  0  0  0  0  0  0  0  0  0
   -3.1670   -2.7710   -1.0950 H   0  0  0  0  0  0  0  0  0  0  0  0
   -5.3610   -4.4370   -0.7620 H   0  0  0  0  0  0  0  0  0  0  0  0
   -4.0590   -4.2980    0.4560 H   0  0  0  0  0  0  0  0  0  0  0  0
   -2.9420    1.9510   -2.7440 H   0  0  0  0  0  0  0  0  0  0  0  0
   -0.2310    0.4000    1.0410 H   0  0  0  0  0  0  0  0  0  0  0  0
   -2.0840    2.6160    0.4150 H   0  0  0  0  0  0  0  0  0  0  0  0
   -1.1150    4.8900    0.2120 H   0  0  0  0  0  0  0  0  0  0  0  0
   -2.1590    4.7660    1.6490 H   0  0  0  0  0  0  0  0  0  0  0  0
   -0.3880    4.7240    1.8280 H   0  0  0  0  0  0  0  0  0  0  0  0
    4.2260   -2.9430    0.3240 H   0  0  0  0  0  0  0  0  0  0  0  0
    4.9390   -2.6220    1.9220 H   0  0  0  0  0  0  0  0  0  0  0  0
    3.1880   -2.4210    1.6720 H   0  0  0  0  0  0  0  0  0  0  0  0
    5.0680   -1.2540   -1.7670 H   0  0  0  0  0  0  0  0  0  0  0  0
    9.2160   -0.3200   -1.4430 H   0  0  0  0  0  0  0  0  0  0  0  0
    6.7110   -0.1270    2.0040 H   0  0  0  0  0  0  0  0  0  0  0  0
   -2.6310    0.9450    0.4400 H   0  0  0  0  0  0  0  0  0  0  0  0
   -6.4860   -3.6260    1.3140 H   0  0  0  0  0  0  0  0  0  0  0  0
    1.3840    0.4620   -1.4000 H   0  0  0  0  0  0  0  0  0  0  0  0
   -4.5690    1.2810   -3.0170 H   0  0  0  0  0  0  0  0  0  0  0  0
   -4.6500    3.3850   -1.8890 H   0  0  0  0  0  0  0  0  0  0  0  0
  7 21  2  0  0  0  0
  7 20  1  0  0  0  0
  8 21  1  0  0  0  0
  6 20  2  0  0  0  0
  8 22  2  0  0  0  0
  6 22  1  0  0  0  0
  5  6  1  0  0  0  0
  5 19  1  0  0  0  0
  5 29  1  0  0  0  0
  4 29  1  0  0  0  0
 14 24  1  0  0  0  0
  1 24  1  0  0  0  0
  4 30  2  0  0  0  0
  4 25  1  0  0  0  0
 13 14  1  0  0  0  0
  1 27  2  0  0  0  0
  1 12  1  0  0  0  0
 16 25  1  0  0  0  0
 12 13  1  0  0  0  0
 11 12  1  0  0  0  0
  9 16  1  0  0  0  0
  2 16  1  0  0  0  0
  9 26  2  0  0  0  0
  9 23  1  0  0  0  0
 10 11  1  0  0  0  0
  2 17  1  0  0  0  0
 10 23  1  0  0  0  0
  3 17  1  0  0  0  0
 10 15  1  0  0  0  0
 17 18  1  0  0  0  0
 15 28  1  0  0  0  0
  2 31  1  0  0  0  0
  2 32  1  0  0  0  0
  3 33  1  0  0  0  0
  3 34  1  0  0  0  0
  3 35  1  0  0  0  0
  5 36  1  0  0  0  0
  7 37  1  0  0  0  0
  8 38  1  0  0  0  0
 10 39  1  0  0  0  0
 11 40  1  0  0  0  0
 11 41  1  0  0  0  0
 12 42  1  0  0  0  0
 13 43  1  0  0  0  0
 13 44  1  0  0  0  0
 14 45  1  0  0  0  0
 14 46  1  0  0  0  0
 15 47  1  0  0  0  0
 16 48  1  0  0  0  0
 17 49  1  0  0  0  0
 18 50  1  0  0  0  0
 18 51  1  0  0  0  0
 18 52  1  0  0  0  0
 19 53  1  0  0  0  0
 19 54  1  0  0  0  0
 19 55  1  0  0  0  0
 20 56  1  0  0  0  0
 21 57  1  0  0  0  0
 22 58  1  0  0  0  0
 23 59  1  0  0  0  0
 24 60  1  0  0  0  0
 25 61  1  0  0  0  0
 15 62  1  0  0  0  0
 28 63  1  0  0  0  0
M  END
> <OPENEYE_ISO_SMILES>
C[C@@H](c1ccccc1)OC(=O)N[C@@H](CC(C)C)C(=O)N[C@@H](C[C@@H]2CCNC2=O)CO

> <OPENEYE_INCHI>
InChI=1S/C22H33N3O5/c1-14(2)11-19(25-22(29)30-15(3)16-7-5-4-6-8-16)21(28)24-18(13-26)12-17-9-10-23-20(17)27/h4-8,14-15,17-19,26H,9-13H2,1-3H3,(H,23,27)(H,24,28)(H,25,29)/t15-,17-,18-,19-/m0/s1

> <OPENEYE_INCHIKEY>
TTWGQXYYGIKZJA-WNHJNPCNSA-N

> <FORMULA>
C22H33N3O5

$$$$
