7LCT_ligand1
 OpenBabel04052409413D

 61 62  0  0  1  0  0  0  0  0999 V2000
    6.6533    1.4729   18.7406 C   0  0  0  0  0  0  0  0  0  0  0  0
   11.2068   -0.9558   23.6316 C   0  0  0  0  0  0  0  0  0  0  0  0
   13.2957   -1.5676   22.3024 C   0  0  0  0  0  0  0  0  0  0  0  0
    9.8619    2.2086   22.1804 C   0  0  0  0  0  0  0  0  0  0  0  0
    9.1567    4.4570   22.5808 C   0  0  2  0  0  0  0  0  0  0  0  0
    9.7577    5.6622   23.2759 C   0  0  0  0  0  0  0  0  0  0  0  0
   10.2930    8.0429   23.2742 C   0  0  0  0  0  0  0  0  0  0  0  0
   10.7018    6.7031   25.2738 C   0  0  0  0  0  0  0  0  0  0  0  0
    9.0441   -0.8842   22.2662 C   0  0  0  0  0  0  0  0  0  0  0  0
    7.4431   -1.8727   20.6499 C   0  0  1  0  0  0  0  0  0  0  0  0
    7.0907   -0.9933   19.4222 C   0  0  0  0  0  0  0  0  0  0  0  0
    6.9282    0.4709   19.8428 C   0  0  2  0  0  0  0  0  0  0  0  0
    5.7769    0.7137   20.8190 C   0  0  0  0  0  0  0  0  0  0  0  0
    5.1796    2.0617   20.4456 C   0  0  0  0  0  0  0  0  0  0  0  0
    7.2453   -3.3687   20.4211 C   0  0  0  0  0  0  0  0  0  0  0  0
   10.4397   -0.2617   22.4751 C   0  0  1  0  0  0  0  0  0  0  0  0
   12.1969   -2.0618   23.2496 C   0  0  0  0  0  0  0  0  0  0  0  0
   12.8526   -2.6277   24.5208 C   0  0  0  0  0  0  0  0  0  0  0  0
    7.6471    4.3600   22.8493 C   0  0  0  0  0  0  0  0  0  0  0  0
    9.8066    6.9030   22.6073 C   0  0  0  0  0  0  0  0  0  0  0  0
   10.7284    7.9439   24.6105 C   0  0  0  0  0  0  0  0  0  0  0  0
   10.2147    5.5653   24.6062 C   0  0  0  0  0  0  0  0  0  0  0  0
    8.8001   -1.5484   21.1201 N   0  0  0  0  0  0  0  0  0  0  0  0
    5.7453    2.3450   19.1449 N   0  0  0  0  0  0  0  0  0  0  0  0
   10.2812    1.1206   22.9156 N   0  0  0  0  0  0  0  0  0  0  0  0
    8.1804   -0.7184   23.1282 O   0  0  0  0  0  0  0  0  0  0  0  0
    7.2352    1.5120   17.6643 O   0  0  0  0  0  0  0  0  0  0  0  0
    6.3665   -3.8513   19.7073 O   0  0  0  0  0  0  0  0  0  0  0  0
    9.7687    3.2493   23.0090 O   0  0  0  0  0  0  0  0  0  0  0  0
    9.5794    2.2302   20.9870 O   0  0  0  0  0  0  0  0  0  0  0  0
   10.5032   -1.3492   24.3660 H   0  0  0  0  0  0  0  0  0  0  0  0
   11.7891   -0.2112   24.1799 H   0  0  0  0  0  0  0  0  0  0  0  0
   13.9724   -2.3835   22.0634 H   0  0  0  0  0  0  0  0  0  0  0  0
   12.9085   -1.2103   21.3523 H   0  0  0  0  0  0  0  0  0  0  0  0
   13.8748   -0.7643   22.7571 H   0  0  0  0  0  0  0  0  0  0  0  0
    9.3113    4.5966   21.5123 H   0  0  0  0  0  0  0  0  0  0  0  0
   10.3223    8.9942   22.7641 H   0  0  0  0  0  0  0  0  0  0  0  0
   11.0440    6.6250   26.2945 H   0  0  0  0  0  0  0  0  0  0  0  0
    6.7183   -1.6450   21.4298 H   0  0  0  0  0  0  0  0  0  0  0  0
    6.1750   -1.3381   18.9434 H   0  0  0  0  0  0  0  0  0  0  0  0
    7.8702   -1.0508   18.6659 H   0  0  0  0  0  0  0  0  0  0  0  0
    7.8486    0.8017   20.3017 H   0  0  0  0  0  0  0  0  0  0  0  0
    6.1029    0.6906   21.8588 H   0  0  0  0  0  0  0  0  0  0  0  0
    5.0225   -0.0567   20.6899 H   0  0  0  0  0  0  0  0  0  0  0  0
    5.4604    2.8474   21.1443 H   0  0  0  0  0  0  0  0  0  0  0  0
    4.0915    2.0062   20.4159 H   0  0  0  0  0  0  0  0  0  0  0  0
    7.9526   -3.9830   20.9764 H   0  0  0  0  0  0  0  0  0  0  0  0
   10.9917   -0.2601   21.5392 H   0  0  0  0  0  0  0  0  0  0  0  0
   11.6439   -2.8542   22.7497 H   0  0  0  0  0  0  0  0  0  0  0  0
   13.6693   -3.3044   24.2802 H   0  0  0  0  0  0  0  0  0  0  0  0
   13.2728   -1.8360   25.1433 H   0  0  0  0  0  0  0  0  0  0  0  0
   12.1371   -3.1846   25.1218 H   0  0  0  0  0  0  0  0  0  0  0  0
    7.2179    3.4967   22.3443 H   0  0  0  0  0  0  0  0  0  0  0  0
    7.4400    4.2543   23.9145 H   0  0  0  0  0  0  0  0  0  0  0  0
    7.1253    5.2471   22.4900 H   0  0  0  0  0  0  0  0  0  0  0  0
    9.4574    6.9851   21.5869 H   0  0  0  0  0  0  0  0  0  0  0  0
   11.0895    8.8202   25.1266 H   0  0  0  0  0  0  0  0  0  0  0  0
   10.1721    4.6209   25.1205 H   0  0  0  0  0  0  0  0  0  0  0  0
    9.5574   -1.6636   20.4599 H   0  0  0  0  0  0  0  0  0  0  0  0
    5.4420    3.1338   18.5899 H   0  0  0  0  0  0  0  0  0  0  0  0
   10.4076    1.3011   23.9021 H   0  0  0  0  0  0  0  0  0  0  0  0
  1 12  1  0  0  0  0
  1 24  1  0  0  0  0
  1 27  2  0  0  0  0
  2 16  1  0  0  0  0
  2 17  1  0  0  0  0
  2 31  1  0  0  0  0
  2 32  1  0  0  0  0
  3 17  1  0  0  0  0
  3 33  1  0  0  0  0
  3 34  1  0  0  0  0
  3 35  1  0  0  0  0
  4 25  1  0  0  0  0
  4 29  1  0  0  0  0
  4 30  2  0  0  0  0
  5  6  1  0  0  0  0
  5 19  1  0  0  0  0
  5 29  1  0  0  0  0
  5 36  1  6  0  0  0
  6 20  2  0  0  0  0
  6 22  1  0  0  0  0
  7 20  1  0  0  0  0
  7 21  2  0  0  0  0
  7 37  1  0  0  0  0
  8 21  1  0  0  0  0
  8 22  2  0  0  0  0
  8 38  1  0  0  0  0
  9 16  1  0  0  0  0
  9 23  1  0  0  0  0
  9 26  2  0  0  0  0
 10 11  1  0  0  0  0
 10 15  1  0  0  0  0
 10 23  1  0  0  0  0
 10 39  1  1  0  0  0
 11 12  1  0  0  0  0
 11 40  1  0  0  0  0
 11 41  1  0  0  0  0
 12 13  1  0  0  0  0
 12 42  1  1  0  0  0
 13 14  1  0  0  0  0
 13 43  1  0  0  0  0
 13 44  1  0  0  0  0
 14 24  1  0  0  0  0
 14 45  1  0  0  0  0
 14 46  1  0  0  0  0
 15 28  2  0  0  0  0
 15 47  1  0  0  0  0
 16 25  1  0  0  0  0
 16 48  1  6  0  0  0
 17 18  1  0  0  0  0
 17 49  1  0  0  0  0
 18 50  1  0  0  0  0
 18 51  1  0  0  0  0
 18 52  1  0  0  0  0
 19 53  1  0  0  0  0
 19 54  1  0  0  0  0
 19 55  1  0  0  0  0
 20 56  1  0  0  0  0
 21 57  1  0  0  0  0
 22 58  1  0  0  0  0
 23 59  1  0  0  0  0
 24 60  1  0  0  0  0
 25 61  1  0  0  0  0
M  END
$$$$
