7LMD_ligand1
 OpenBabel04052409413D

 48 52  0  0  0  0  0  0  0  0999 V2000
    5.6509    0.4286   19.0662 C   0  0  0  0  0  0  0  0  0  0  0  0
    6.5542    0.0046   18.1097 N   0  0  0  0  0  0  0  0  0  0  0  0
   12.0027    0.4849   22.9558 C   0  0  0  0  0  0  0  0  0  0  0  0
    9.3023    1.3193   21.1346 O   0  0  0  0  0  0  0  0  0  0  0  0
    9.1010    0.2591   21.7307 C   0  0  0  0  0  0  0  0  0  0  0  0
    8.3311   -0.8533   21.0145 C   0  0  0  0  0  0  0  0  0  0  0  0
    7.3827   -0.3257   20.0705 N   0  0  0  0  0  0  0  0  0  0  0  0
    6.1832    0.2757   20.3569 C   0  0  0  0  0  0  0  0  0  0  0  0
    5.4969    0.6627   21.5224 C   0  0  0  0  0  0  0  0  0  0  0  0
    4.2114    1.2176   21.3933 C   0  0  0  0  0  0  0  0  0  0  0  0
    3.6310    1.3276   20.1171 C   0  0  0  0  0  0  0  0  0  0  0  0
    4.3457    0.9256   18.9666 C   0  0  0  0  0  0  0  0  0  0  0  0
    7.6015   -0.4380   18.7314 N   0  0  0  0  0  0  0  0  0  0  0  0
    9.5914    0.0229   22.9713 N   0  0  0  0  0  0  0  0  0  0  0  0
   10.6535    0.8890   23.4915 C   0  0  0  0  0  0  0  0  0  0  0  0
   12.2528   -0.6204   22.1765 C   0  0  0  0  0  0  0  0  0  0  0  0
   13.9233   -0.8185   21.8035 S   0  0  0  0  0  0  0  0  0  0  0  0
   14.2865    0.6896   22.5806 C   0  0  0  0  0  0  0  0  0  0  0  0
   13.1873    1.2362   23.1809 C   0  0  0  0  0  0  0  0  0  0  0  0
    9.2882   -1.1349   23.7412 C   0  0  0  0  0  0  0  0  0  0  0  0
    9.6592   -2.4299   23.3056 C   0  0  0  0  0  0  0  0  0  0  0  0
    9.4472   -3.5414   24.1311 C   0  0  0  0  0  0  0  0  0  0  0  0
    8.8400   -3.3920   25.3905 C   0  0  0  0  0  0  0  0  0  0  0  0
    8.6493   -4.5653   26.2449 C   0  0  0  0  0  0  0  0  0  0  0  0
    7.6404   -4.7453   27.2284 C   0  0  0  0  0  0  0  0  0  0  0  0
    7.7452   -5.9202   27.8269 N   0  0  0  0  0  0  0  0  0  0  0  0
    8.8148   -6.4888   27.2296 N   0  0  0  0  0  0  0  0  0  0  0  0
    9.3926   -5.7073   26.2615 C   0  0  0  0  0  0  0  0  0  0  0  0
    8.4349   -2.1071   25.8087 C   0  0  0  0  0  0  0  0  0  0  0  0
    8.6688   -0.9815   24.9977 C   0  0  0  0  0  0  0  0  0  0  0  0
    7.7609   -1.4728   21.7056 H   0  0  0  0  0  0  0  0  0  0  0  0
    9.0424   -1.4972   20.5000 H   0  0  0  0  0  0  0  0  0  0  0  0
    5.9465    0.5346   22.4949 H   0  0  0  0  0  0  0  0  0  0  0  0
    3.6640    1.5329   22.2691 H   0  0  0  0  0  0  0  0  0  0  0  0
    2.6303    1.7210   20.0172 H   0  0  0  0  0  0  0  0  0  0  0  0
    3.9010    1.0048   17.9904 H   0  0  0  0  0  0  0  0  0  0  0  0
   10.4546    1.9390   23.2682 H   0  0  0  0  0  0  0  0  0  0  0  0
   10.6711    0.8357   24.5797 H   0  0  0  0  0  0  0  0  0  0  0  0
   11.5730   -1.3486   21.7788 H   0  0  0  0  0  0  0  0  0  0  0  0
   15.2849    1.0908   22.5363 H   0  0  0  0  0  0  0  0  0  0  0  0
   13.1797    2.1641   23.7295 H   0  0  0  0  0  0  0  0  0  0  0  0
   10.1053   -2.6066   22.3430 H   0  0  0  0  0  0  0  0  0  0  0  0
    9.7501   -4.5172   23.7870 H   0  0  0  0  0  0  0  0  0  0  0  0
    6.8427   -4.0754   27.5091 H   0  0  0  0  0  0  0  0  0  0  0  0
    9.1320   -7.4165   27.4857 H   0  0  0  0  0  0  0  0  0  0  0  0
   10.2552   -6.0181   25.6932 H   0  0  0  0  0  0  0  0  0  0  0  0
    7.9677   -1.9724   26.7739 H   0  0  0  0  0  0  0  0  0  0  0  0
    8.3811   -0.0017   25.3488 H   0  0  0  0  0  0  0  0  0  0  0  0
  1  2  1  0  0  0  0
  1  8  2  0  0  0  0
  1 12  1  0  0  0  0
  2 13  2  0  0  0  0
  3 15  1  0  0  0  0
  3 16  2  0  0  0  0
  3 19  1  0  0  0  0
  4  5  2  0  0  0  0
  5  6  1  0  0  0  0
  5 14  1  0  0  0  0
  6  7  1  0  0  0  0
  6 31  1  0  0  0  0
  6 32  1  0  0  0  0
  7  8  1  0  0  0  0
  7 13  1  0  0  0  0
  8  9  1  0  0  0  0
  9 10  2  0  0  0  0
  9 33  1  0  0  0  0
 10 11  1  0  0  0  0
 10 34  1  0  0  0  0
 11 12  2  0  0  0  0
 11 35  1  0  0  0  0
 12 36  1  0  0  0  0
 14 15  1  0  0  0  0
 14 20  1  0  0  0  0
 15 37  1  0  0  0  0
 15 38  1  0  0  0  0
 16 17  1  0  0  0  0
 16 39  1  0  0  0  0
 17 18  1  0  0  0  0
 18 19  2  0  0  0  0
 18 40  1  0  0  0  0
 19 41  1  0  0  0  0
 20 21  2  0  0  0  0
 20 30  1  0  0  0  0
 21 22  1  0  0  0  0
 21 42  1  0  0  0  0
 22 23  2  0  0  0  0
 22 43  1  0  0  0  0
 23 24  1  0  0  0  0
 23 29  1  0  0  0  0
 24 25  1  0  0  0  0
 24 28  2  0  0  0  0
 25 26  2  0  0  0  0
 25 44  1  0  0  0  0
 26 27  1  0  0  0  0
 27 28  1  0  0  0  0
 27 45  1  0  0  0  0
 28 46  1  0  0  0  0
 29 30  2  0  0  0  0
 29 47  1  0  0  0  0
 30 48  1  0  0  0  0
M  END
$$$$
