7LMF_ligand1
 OpenBabel04052409413D

 48 52  0  0  0  0  0  0  0  0999 V2000
    9.1507    1.4399   21.0630 O   0  0  0  0  0  0  0  0  0  0  0  0
    8.9042    0.4710   21.7799 C   0  0  0  0  0  0  0  0  0  0  0  0
    7.9954   -0.6430   21.2481 C   0  0  0  0  0  0  0  0  0  0  0  0
    7.1531   -0.1827   20.1725 N   0  0  0  0  0  0  0  0  0  0  0  0
    5.9711    0.5121   20.2666 C   0  0  0  0  0  0  0  0  0  0  0  0
    5.1935    1.0516   21.3057 C   0  0  0  0  0  0  0  0  0  0  0  0
    3.9924    1.7059   20.9775 C   0  0  0  0  0  0  0  0  0  0  0  0
    3.5814    1.7809   19.6323 C   0  0  0  0  0  0  0  0  0  0  0  0
    4.3650    1.2004   18.6135 C   0  0  0  0  0  0  0  0  0  0  0  0
    5.5938    0.5920   18.9155 C   0  0  0  0  0  0  0  0  0  0  0  0
    6.5550    0.0076   18.1132 N   0  0  0  0  0  0  0  0  0  0  0  0
    7.5033   -0.4266   18.8799 N   0  0  0  0  0  0  0  0  0  0  0  0
    9.4671    0.3218   22.9997 N   0  0  0  0  0  0  0  0  0  0  0  0
   10.5131    1.2516   23.4376 C   0  0  0  0  0  0  0  0  0  0  0  0
   11.8771    0.8736   22.9152 C   0  0  0  0  0  0  0  0  0  0  0  0
   12.1550   -0.1749   22.0692 C   0  0  0  0  0  0  0  0  0  0  0  0
   13.8502   -0.3986   21.8105 S   0  0  0  0  0  0  0  0  0  0  0  0
   14.1884    1.0469   22.6974 C   0  0  0  0  0  0  0  0  0  0  0  0
   13.0580    1.5972   23.2369 C   0  0  0  0  0  0  0  0  0  0  0  0
    9.2447   -0.8268   23.8010 C   0  0  0  0  0  0  0  0  0  0  0  0
    8.5064   -0.7257   24.9983 C   0  0  0  0  0  0  0  0  0  0  0  0
    8.3256   -1.8642   25.8103 C   0  0  0  0  0  0  0  0  0  0  0  0
    8.9043   -3.0977   25.4374 C   0  0  0  0  0  0  0  0  0  0  0  0
    8.8279   -4.2800   26.2848 C   0  0  0  0  0  0  0  0  0  0  0  0
    9.6682   -5.3738   26.3028 C   0  0  0  0  0  0  0  0  0  0  0  0
    9.1813   -6.2002   27.2901 N   0  0  0  0  0  0  0  0  0  0  0  0
    8.0990   -5.6198   27.8030 C   0  0  0  0  0  0  0  0  0  0  0  0
    7.8294   -4.4450   27.2507 N   0  0  0  0  0  0  0  0  0  0  0  0
    9.6297   -3.1898   24.2392 C   0  0  0  0  0  0  0  0  0  0  0  0
    9.7853   -2.0724   23.4165 C   0  0  0  0  0  0  0  0  0  0  0  0
    7.3408   -1.0282   22.0310 H   0  0  0  0  0  0  0  0  0  0  0  0
    8.6099   -1.4714   20.8961 H   0  0  0  0  0  0  0  0  0  0  0  0
    5.5161    0.9755   22.3331 H   0  0  0  0  0  0  0  0  0  0  0  0
    3.3827    2.1408   21.7561 H   0  0  0  0  0  0  0  0  0  0  0  0
    2.6593    2.2778   19.3753 H   0  0  0  0  0  0  0  0  0  0  0  0
    4.0300    1.2236   17.5926 H   0  0  0  0  0  0  0  0  0  0  0  0
   10.5386    1.2663   24.5287 H   0  0  0  0  0  0  0  0  0  0  0  0
   10.2702    2.2764   23.1528 H   0  0  0  0  0  0  0  0  0  0  0  0
   11.4810   -0.8484   21.5727 H   0  0  0  0  0  0  0  0  0  0  0  0
   15.2028    1.4014   22.7474 H   0  0  0  0  0  0  0  0  0  0  0  0
   13.0250    2.4952   23.8315 H   0  0  0  0  0  0  0  0  0  0  0  0
    8.0854    0.2218   25.3015 H   0  0  0  0  0  0  0  0  0  0  0  0
    7.7708   -1.7788   26.7325 H   0  0  0  0  0  0  0  0  0  0  0  0
   10.5525   -5.6136   25.7311 H   0  0  0  0  0  0  0  0  0  0  0  0
    9.5868   -7.0776   27.5884 H   0  0  0  0  0  0  0  0  0  0  0  0
    7.5148   -6.0499   28.6039 H   0  0  0  0  0  0  0  0  0  0  0  0
   10.0731   -4.1253   23.9440 H   0  0  0  0  0  0  0  0  0  0  0  0
   10.3240   -2.2078   22.4959 H   0  0  0  0  0  0  0  0  0  0  0  0
  1  2  2  0  0  0  0
  2  3  1  0  0  0  0
  2 13  1  0  0  0  0
  3  4  1  0  0  0  0
  3 31  1  0  0  0  0
  3 32  1  0  0  0  0
  4  5  1  0  0  0  0
  4 12  1  0  0  0  0
  5  6  2  0  0  0  0
  5 10  1  0  0  0  0
  6  7  1  0  0  0  0
  6 33  1  0  0  0  0
  7  8  2  0  0  0  0
  7 34  1  0  0  0  0
  8  9  1  0  0  0  0
  8 35  1  0  0  0  0
  9 10  2  0  0  0  0
  9 36  1  0  0  0  0
 10 11  1  0  0  0  0
 11 12  2  0  0  0  0
 13 14  1  0  0  0  0
 13 20  1  0  0  0  0
 14 15  1  0  0  0  0
 14 37  1  0  0  0  0
 14 38  1  0  0  0  0
 15 16  2  0  0  0  0
 15 19  1  0  0  0  0
 16 17  1  0  0  0  0
 16 39  1  0  0  0  0
 17 18  1  0  0  0  0
 18 19  2  0  0  0  0
 18 40  1  0  0  0  0
 19 41  1  0  0  0  0
 20 21  2  0  0  0  0
 20 30  1  0  0  0  0
 21 22  1  0  0  0  0
 21 42  1  0  0  0  0
 22 23  2  0  0  0  0
 22 43  1  0  0  0  0
 23 24  1  0  0  0  0
 23 29  1  0  0  0  0
 24 25  2  0  0  0  0
 24 28  1  0  0  0  0
 25 26  1  0  0  0  0
 25 44  1  0  0  0  0
 26 27  1  0  0  0  0
 26 45  1  0  0  0  0
 27 28  2  0  0  0  0
 27 46  1  0  0  0  0
 29 30  2  0  0  0  0
 29 47  1  0  0  0  0
 30 48  1  0  0  0  0
M  END
$$$$
