7M8M_ligand
 OpenBabel04052409413D

 50 53  0  0  0  0  0  0  0  0999 V2000
    5.9960   -6.0814   22.4869 N   0  0  0  0  0  0  0  0  0  0  0  0
    9.6186   -1.1089   22.1371 C   0  0  0  0  0  0  0  0  0  0  0  0
    7.6765   -0.8711   20.7420 N   0  0  0  0  0  0  0  0  0  0  0  0
   12.0298   -1.6465   22.5179 C   0  0  0  0  0  0  0  0  0  0  0  0
   13.3425   -1.2578   22.8357 C   0  0  0  0  0  0  0  0  0  0  0  0
   13.6346    0.0896   23.1086 C   0  0  0  0  0  0  0  0  0  0  0  0
   12.0938    3.3950   22.9308 C   0  0  0  0  0  0  0  0  0  0  0  0
    8.8313   -0.3101   21.1794 C   0  0  0  0  0  0  0  0  0  0  0  0
   14.0030    4.8526   22.0754 C   0  0  0  0  0  0  0  0  0  0  0  0
   11.2905    0.6565   22.8129 C   0  0  0  0  0  0  0  0  0  0  0  0
    9.1167   -2.2931   22.5769 C   0  0  0  0  0  0  0  0  0  0  0  0
    7.8133   -2.7961   22.1706 C   0  0  0  0  0  0  0  0  0  0  0  0
    7.2461   -4.0502   22.6633 C   0  0  0  0  0  3  0  0  0  0  0  0
    6.4775   -4.9960   21.8318 C   0  0  0  0  0  0  0  0  0  0  0  0
    7.4605   -4.4846   23.9606 C   0  0  0  0  0  0  0  0  0  0  0  0
    6.1845   -6.3968   23.7928 C   0  0  0  0  0  0  0  0  0  0  0  0
    7.1613   -2.0611   21.2575 C   0  0  0  0  0  0  0  0  0  0  0  0
    6.8750   -0.2093   19.7947 C   0  0  0  0  0  0  0  0  0  0  0  0
    5.6482    0.3454   20.1887 C   0  0  0  0  0  0  0  0  0  0  0  0
    4.8833    1.0082   19.2219 C   0  0  0  0  0  0  0  0  0  0  0  0
    5.3762    1.0854   17.9028 C   0  0  0  0  0  0  0  0  0  0  0  0
    7.2866   -0.0893   18.4518 C   0  0  0  0  0  0  0  0  0  0  0  0
   10.9935   -0.6919   22.4992 C   0  0  0  0  0  0  0  0  0  0  0  0
   12.6179    1.0632   23.0860 C   0  0  0  0  0  0  0  0  0  0  0  0
   12.8174    4.7403   23.0361 C   0  0  0  0  0  0  0  0  0  0  0  0
    6.9677   -5.5862   24.5582 N   0  0  0  0  0  0  0  0  0  0  0  0
    6.5520    0.5516   17.5246 N   0  0  0  0  0  0  0  0  0  0  0  0
    9.1692    0.8130   20.7896 O   0  0  0  0  0  0  0  0  0  0  0  0
   12.9887    2.3665   23.3304 O   0  0  0  0  0  0  0  0  0  0  0  0
    6.2566   -4.8604   20.6265 O   0  0  0  0  0  0  0  0  0  0  0  0
    5.6318   -7.4101   24.2118 O   0  0  0  0  0  0  0  0  0  0  0  0
   14.5895   -2.4420   22.8867 Cl  0  0  0  0  0  0  0  0  0  0  0  0
    5.4445   -6.7350   21.9489 H   0  0  0  0  0  0  0  0  0  0  0  0
   11.8304   -2.6806   22.2799 H   0  0  0  0  0  0  0  0  0  0  0  0
   14.6499    0.3826   23.3201 H   0  0  0  0  0  0  0  0  0  0  0  0
   11.7553    3.2361   21.9057 H   0  0  0  0  0  0  0  0  0  0  0  0
   11.2178    3.4021   23.5808 H   0  0  0  0  0  0  0  0  0  0  0  0
   14.4444    5.8453   22.1333 H   0  0  0  0  0  0  0  0  0  0  0  0
   14.7801    4.1254   22.3147 H   0  0  0  0  0  0  0  0  0  0  0  0
   13.6911    4.6827   21.0448 H   0  0  0  0  0  0  0  0  0  0  0  0
   10.4910    1.3806   22.8259 H   0  0  0  0  0  0  0  0  0  0  0  0
    9.7146   -2.9021   23.2395 H   0  0  0  0  0  0  0  0  0  0  0  0
    8.0382   -3.8136   24.6317 H   0  0  0  0  0  0  0  0  0  0  0  0
    6.1916   -2.3296   20.8617 H   0  0  0  0  0  0  0  0  0  0  0  0
    5.2987    0.2714   21.2084 H   0  0  0  0  0  0  0  0  0  0  0  0
    3.9373    1.4239   19.5185 H   0  0  0  0  0  0  0  0  0  0  0  0
    4.8208    1.5790   17.1211 H   0  0  0  0  0  0  0  0  0  0  0  0
    8.2169   -0.5163   18.1085 H   0  0  0  0  0  0  0  0  0  0  0  0
   13.1573    4.8922   24.0611 H   0  0  0  0  0  0  0  0  0  0  0  0
   12.1143    5.5447   22.8204 H   0  0  0  0  0  0  0  0  0  0  0  0
  1 14  1  0  0  0  0
  1 16  1  0  0  0  0
  1 33  1  0  0  0  0
  2  8  1  0  0  0  0
  2 11  2  0  0  0  0
  2 23  1  0  0  0  0
  3  8  1  0  0  0  0
  3 17  1  0  0  0  0
  3 18  1  0  0  0  0
  4  5  2  0  0  0  0
  4 23  1  0  0  0  0
  4 34  1  0  0  0  0
  5  6  1  0  0  0  0
  5 32  1  0  0  0  0
  6 24  2  0  0  0  0
  6 35  1  0  0  0  0
  7 25  1  0  0  0  0
  7 29  1  0  0  0  0
  7 36  1  0  0  0  0
  7 37  1  0  0  0  0
  8 28  2  0  0  0  0
  9 25  1  0  0  0  0
  9 38  1  0  0  0  0
  9 39  1  0  0  0  0
  9 40  1  0  0  0  0
 10 23  2  0  0  0  0
 10 24  1  0  0  0  0
 10 41  1  0  0  0  0
 11 12  1  0  0  0  0
 11 42  1  0  0  0  0
 12 13  1  0  0  0  0
 12 17  2  0  0  0  0
 13 14  1  0  0  0  0
 13 15  1  0  0  0  0
 14 30  2  0  0  0  0
 15 26  2  0  0  0  0
 15 43  1  0  0  0  0
 16 26  1  0  0  0  0
 16 31  2  0  0  0  0
 17 44  1  0  0  0  0
 18 19  2  0  0  0  0
 18 22  1  0  0  0  0
 19 20  1  0  0  0  0
 19 45  1  0  0  0  0
 20 21  2  0  0  0  0
 20 46  1  0  0  0  0
 21 27  1  0  0  0  0
 21 47  1  0  0  0  0
 22 27  2  0  0  0  0
 22 48  1  0  0  0  0
 24 29  1  0  0  0  0
 25 49  1  0  0  0  0
 25 50  1  0  0  0  0
M  END
$$$$
