7M8O_ligand2
 OpenBabel04052409413D

 54 58  0  0  0  0  0  0  0  0999 V2000
    8.7100   -0.4070   21.1550 C   0  0  0  0  0  0  0  0  0  0  0  0
   14.9090    7.1930   23.1390 F   0  0  0  0  0  0  0  0  0  0  0  0
    7.5730   -0.9890   20.6900 N   0  0  0  0  0  0  0  0  0  0  0  0
    6.7650   -0.3200   19.7500 C   0  0  0  0  0  0  0  0  0  0  0  0
    7.2170   -0.0740   18.4370 C   0  0  0  0  0  0  0  0  0  0  0  0
    5.9610   -6.2620   22.4230 N   0  0  0  0  0  0  0  0  0  0  0  0
    5.8040   -7.6840   24.1080 O   0  0  0  0  0  0  0  0  0  0  0  0
    5.2490    0.9990   17.8780 C   0  0  0  0  0  0  0  0  0  0  0  0
   12.5120    2.3380   23.8670 O   0  0  0  0  0  0  0  0  0  0  0  0
    4.7170    0.8040   19.1680 C   0  0  0  0  0  0  0  0  0  0  0  0
    5.4860    0.1280   20.1220 C   0  0  0  0  0  0  0  0  0  0  0  0
    7.0850   -2.2070   21.1750 C   0  0  0  0  0  0  0  0  0  0  0  0
    7.7490   -2.9500   22.0790 C   0  0  0  0  0  0  0  0  0  0  0  0
    7.2360   -4.2380   22.5550 C   0  0  0  0  0  3  0  0  0  0  0  0
    6.3690   -5.1410   21.7710 C   0  0  0  0  0  0  0  0  0  0  0  0
    7.5940   -4.7450   23.7940 C   0  0  0  0  0  0  0  0  0  0  0  0
    6.3090   -6.6510   23.6770 C   0  0  0  0  0  0  0  0  0  0  0  0
    9.0260   -2.4080   22.5170 C   0  0  0  0  0  0  0  0  0  0  0  0
    9.4880   -1.1960   22.1230 C   0  0  0  0  0  0  0  0  0  0  0  0
   10.8140   -0.7260   22.5710 C   0  0  0  0  0  0  0  0  0  0  0  0
   11.9090   -1.6110   22.5610 C   0  0  0  0  0  0  0  0  0  0  0  0
   13.1670   -1.1770   23.0120 C   0  0  0  0  0  0  0  0  0  0  0  0
   13.3420    0.1440   23.4610 C   0  0  0  0  0  0  0  0  0  0  0  0
   11.7770    3.3810   23.2390 C   0  0  0  0  0  0  0  0  0  0  0  0
   12.2440    4.7310   23.7370 C   0  0  0  0  0  0  0  0  0  0  0  0
   11.5390    5.3720   24.7770 C   0  0  0  0  0  0  0  0  0  0  0  0
   11.9990    6.5980   25.2920 C   0  0  0  0  0  0  0  0  0  0  0  0
   13.1550    7.1970   24.7570 C   0  0  0  0  0  0  0  0  0  0  0  0
   13.3940    5.3400   23.1910 C   0  0  0  0  0  0  0  0  0  0  0  0
   12.2630    1.0510   23.4510 C   0  0  0  0  0  0  0  0  0  0  0  0
   13.8390    6.5780   23.6940 C   0  0  0  0  0  0  0  0  0  0  0  0
   10.9920    0.6010   23.0240 C   0  0  0  0  0  0  0  0  0  0  0  0
    6.4780    0.5830   17.5240 N   0  0  0  0  0  0  0  0  0  0  0  0
    7.1940   -5.8900   24.3780 N   0  0  0  0  0  0  0  0  0  0  0  0
    9.0440    0.7210   20.7830 O   0  0  0  0  0  0  0  0  0  0  0  0
    6.0130   -4.9480   20.6080 O   0  0  0  0  0  0  0  0  0  0  0  0
   14.4890   -2.2800   23.0100 Cl  0  0  0  0  0  0  0  0  0  0  0  0
    8.1920   -0.4050   18.1110 H   0  0  0  0  0  0  0  0  0  0  0  0
    5.3410   -6.8820   21.9230 H   0  0  0  0  0  0  0  0  0  0  0  0
    4.6760    1.5020   17.1140 H   0  0  0  0  0  0  0  0  0  0  0  0
    3.7280    1.1350   19.4330 H   0  0  0  0  0  0  0  0  0  0  0  0
    5.0930   -0.0440   21.1130 H   0  0  0  0  0  0  0  0  0  0  0  0
    6.1270   -2.4870   20.7620 H   0  0  0  0  0  0  0  0  0  0  0  0
    8.2360   -4.1090   24.4380 H   0  0  0  0  0  0  0  0  0  0  0  0
    9.6380   -2.9960   23.1860 H   0  0  0  0  0  0  0  0  0  0  0  0
   11.7940   -2.6230   22.2090 H   0  0  0  0  0  0  0  0  0  0  0  0
   14.3150    0.4740   23.7920 H   0  0  0  0  0  0  0  0  0  0  0  0
   10.7090    3.2940   23.4440 H   0  0  0  0  0  0  0  0  0  0  0  0
   11.9100    3.3280   22.1580 H   0  0  0  0  0  0  0  0  0  0  0  0
   10.6580    4.9150   25.2000 H   0  0  0  0  0  0  0  0  0  0  0  0
   11.4660    7.0800   26.0980 H   0  0  0  0  0  0  0  0  0  0  0  0
   13.5040    8.1420   25.1450 H   0  0  0  0  0  0  0  0  0  0  0  0
   13.9330    4.8620   22.3870 H   0  0  0  0  0  0  0  0  0  0  0  0
   10.1410    1.2630   23.0470 H   0  0  0  0  0  0  0  0  0  0  0  0
  1  3  1  0  0  0  0
  1 19  1  0  0  0  0
  1 35  2  0  0  0  0
  2 31  1  0  0  0  0
  3  4  1  0  0  0  0
  3 12  1  0  0  0  0
  4  5  2  0  0  0  0
  4 11  1  0  0  0  0
  5 33  1  0  0  0  0
  5 38  1  0  0  0  0
  6 15  1  0  0  0  0
  6 17  1  0  0  0  0
  6 39  1  0  0  0  0
  7 17  2  0  0  0  0
  8 10  1  0  0  0  0
  8 33  2  0  0  0  0
  8 40  1  0  0  0  0
  9 24  1  0  0  0  0
  9 30  1  0  0  0  0
 10 11  2  0  0  0  0
 10 41  1  0  0  0  0
 11 42  1  0  0  0  0
 12 13  2  0  0  0  0
 12 43  1  0  0  0  0
 13 14  1  0  0  0  0
 13 18  1  0  0  0  0
 14 15  1  0  0  0  0
 14 16  1  0  0  0  0
 15 36  2  0  0  0  0
 16 34  2  0  0  0  0
 16 44  1  0  0  0  0
 17 34  1  0  0  0  0
 18 19  2  0  0  0  0
 18 45  1  0  0  0  0
 19 20  1  0  0  0  0
 20 21  2  0  0  0  0
 20 32  1  0  0  0  0
 21 22  1  0  0  0  0
 21 46  1  0  0  0  0
 22 23  2  0  0  0  0
 22 37  1  0  0  0  0
 23 30  1  0  0  0  0
 23 47  1  0  0  0  0
 24 25  1  0  0  0  0
 24 48  1  0  0  0  0
 24 49  1  0  0  0  0
 25 26  2  0  0  0  0
 25 29  1  0  0  0  0
 26 27  1  0  0  0  0
 26 50  1  0  0  0  0
 27 28  2  0  0  0  0
 27 51  1  0  0  0  0
 28 31  1  0  0  0  0
 28 52  1  0  0  0  0
 29 31  2  0  0  0  0
 29 53  1  0  0  0  0
 30 32  2  0  0  0  0
 32 54  1  0  0  0  0
M  END
$$$$
