7M8P_ligand
 OpenBabel04052409413D

 54 58  0  0  0  0  0  0  0  0999 V2000
    6.0060   -5.9578   24.1496 C   0  0  0  0  0  0  0  0  0  0  0  0
    7.0828   -1.7706   21.4097 C   0  0  0  0  0  0  0  0  0  0  0  0
    6.8643    0.0359   19.8708 C   0  0  0  0  0  0  0  0  0  0  0  0
    5.4056    1.2614   17.9008 C   0  0  0  0  0  0  0  0  0  0  0  0
    4.8983    1.2562   19.2161 C   0  0  0  0  0  0  0  0  0  0  0  0
    5.6411    0.6285   20.2235 C   0  0  0  0  0  0  0  0  0  0  0  0
   11.1611    0.8962   23.0392 C   0  0  0  0  0  0  0  0  0  0  0  0
   12.4753    1.3188   23.3313 C   0  0  0  0  0  0  0  0  0  0  0  0
   11.8745    3.6527   23.5062 C   0  0  0  0  0  0  0  0  0  0  0  0
   13.6851    5.4281   23.2357 C   0  0  0  0  0  0  0  0  0  0  0  0
   14.3296    6.6004   23.6761 C   0  0  0  0  0  0  0  0  0  0  0  0
   13.8163    7.3235   24.7682 C   0  0  0  0  0  0  0  0  0  0  0  0
   11.9982    5.7118   24.9776 C   0  0  0  0  0  0  0  0  0  0  0  0
   13.5243    0.3821   23.2927 C   0  0  0  0  0  0  0  0  0  0  0  0
   13.2792   -0.9555   22.9368 C   0  0  0  0  0  0  0  0  0  0  0  0
    7.2974    0.1030   18.5313 C   0  0  0  0  0  0  0  0  0  0  0  0
    8.8154   -0.0859   21.2658 C   0  0  0  0  0  0  0  0  0  0  0  0
   11.9737   -1.3712   22.6216 C   0  0  0  0  0  0  0  0  0  0  0  0
   12.5222    4.9678   23.8991 C   0  0  0  0  0  0  0  0  0  0  0  0
   12.6439    6.8851   25.4123 C   0  0  0  0  0  0  0  0  0  0  0  0
   10.9128   -0.4434   22.6630 C   0  0  0  0  0  0  0  0  0  0  0  0
    9.5523   -0.8575   22.2789 C   0  0  0  0  0  0  0  0  0  0  0  0
    9.0173   -2.0046   22.7655 C   0  0  0  0  0  0  0  0  0  0  0  0
    7.7068   -2.4846   22.3608 C   0  0  0  0  0  0  0  0  0  0  0  0
    7.1093   -3.6945   22.9137 C   0  0  0  0  0  3  0  0  0  0  0  0
    6.3585   -4.6812   22.1133 C   0  0  0  0  0  0  0  0  0  0  0  0
    7.2909   -4.0508   24.2377 C   0  0  0  0  0  0  0  0  0  0  0  0
   14.7818    0.7827   23.5820 F   0  0  0  0  0  0  0  0  0  0  0  0
    5.8492   -5.7215   22.8241 N   0  0  0  0  0  0  0  0  0  0  0  0
    6.7843   -5.1183   24.8876 N   0  0  0  0  0  0  0  0  0  0  0  0
    7.6376   -0.6168   20.8506 N   0  0  0  0  0  0  0  0  0  0  0  0
    6.5839    0.7058   17.5586 N   0  0  0  0  0  0  0  0  0  0  0  0
    6.1832   -4.6145   20.8983 O   0  0  0  0  0  0  0  0  0  0  0  0
    5.4329   -6.9380   24.6135 O   0  0  0  0  0  0  0  0  0  0  0  0
    9.2190    0.9891   20.8127 O   0  0  0  0  0  0  0  0  0  0  0  0
   12.8227    2.6084   23.6491 O   0  0  0  0  0  0  0  0  0  0  0  0
   14.5858   -2.0780   22.8623 Cl  0  0  0  0  0  0  0  0  0  0  0  0
   14.3462    4.5714   21.8890 Cl  0  0  0  0  0  0  0  0  0  0  0  0
    6.1103   -2.0312   21.0168 H   0  0  0  0  0  0  0  0  0  0  0  0
    4.8566    1.7340   17.1032 H   0  0  0  0  0  0  0  0  0  0  0  0
    3.9447    1.6938   19.4585 H   0  0  0  0  0  0  0  0  0  0  0  0
    5.2729    0.5965   21.2383 H   0  0  0  0  0  0  0  0  0  0  0  0
   10.3393    1.5952   23.0725 H   0  0  0  0  0  0  0  0  0  0  0  0
   11.5290    3.7098   22.4757 H   0  0  0  0  0  0  0  0  0  0  0  0
   11.0072    3.4687   24.1415 H   0  0  0  0  0  0  0  0  0  0  0  0
   15.2209    6.9489   23.1756 H   0  0  0  0  0  0  0  0  0  0  0  0
   14.3181    8.2183   25.1068 H   0  0  0  0  0  0  0  0  0  0  0  0
   11.1119    5.3714   25.4934 H   0  0  0  0  0  0  0  0  0  0  0  0
    8.2354   -0.3398   18.2302 H   0  0  0  0  0  0  0  0  0  0  0  0
   11.7984   -2.3954   22.3271 H   0  0  0  0  0  0  0  0  0  0  0  0
   12.2464    7.4424   26.2481 H   0  0  0  0  0  0  0  0  0  0  0  0
    9.5882   -2.5904   23.4711 H   0  0  0  0  0  0  0  0  0  0  0  0
    7.8623   -3.3489   24.8815 H   0  0  0  0  0  0  0  0  0  0  0  0
    5.3061   -6.4009   22.3113 H   0  0  0  0  0  0  0  0  0  0  0  0
  1 29  1  0  0  0  0
  1 30  1  0  0  0  0
  1 34  2  0  0  0  0
  2 24  2  0  0  0  0
  2 31  1  0  0  0  0
  2 39  1  0  0  0  0
  3  6  2  0  0  0  0
  3 16  1  0  0  0  0
  3 31  1  0  0  0  0
  4  5  2  0  0  0  0
  4 32  1  0  0  0  0
  4 40  1  0  0  0  0
  5  6  1  0  0  0  0
  5 41  1  0  0  0  0
  6 42  1  0  0  0  0
  7  8  2  0  0  0  0
  7 21  1  0  0  0  0
  7 43  1  0  0  0  0
  8 14  1  0  0  0  0
  8 36  1  0  0  0  0
  9 19  1  0  0  0  0
  9 36  1  0  0  0  0
  9 44  1  0  0  0  0
  9 45  1  0  0  0  0
 10 11  2  0  0  0  0
 10 19  1  0  0  0  0
 10 38  1  0  0  0  0
 11 12  1  0  0  0  0
 11 46  1  0  0  0  0
 12 20  2  0  0  0  0
 12 47  1  0  0  0  0
 13 19  2  0  0  0  0
 13 20  1  0  0  0  0
 13 48  1  0  0  0  0
 14 15  2  0  0  0  0
 14 28  1  0  0  0  0
 15 18  1  0  0  0  0
 15 37  1  0  0  0  0
 16 32  2  0  0  0  0
 16 49  1  0  0  0  0
 17 22  1  0  0  0  0
 17 31  1  0  0  0  0
 17 35  2  0  0  0  0
 18 21  2  0  0  0  0
 18 50  1  0  0  0  0
 20 51  1  0  0  0  0
 21 22  1  0  0  0  0
 22 23  2  0  0  0  0
 23 24  1  0  0  0  0
 23 52  1  0  0  0  0
 24 25  1  0  0  0  0
 25 26  1  0  0  0  0
 25 27  1  0  0  0  0
 26 29  1  0  0  0  0
 26 33  2  0  0  0  0
 27 30  2  0  0  0  0
 27 53  1  0  0  0  0
 29 54  1  0  0  0  0
M  END
$$$$
