7M8Y_ligand1
 OpenBabel04052409413D

 57 61  0  0  0  0  0  0  0  0999 V2000
    8.4904   -0.2415   21.4938 C   0  0  0  0  0  0  0  0  0  0  0  0
    9.2003   -1.0281   22.5189 C   0  0  0  0  0  0  0  0  0  0  0  0
   10.5401   -0.6238   22.9883 C   0  0  0  0  0  0  0  0  0  0  0  0
   11.5884   -1.5683   23.0205 C   0  0  0  0  0  0  0  0  0  0  0  0
   12.8834   -1.1704   23.3979 C   0  0  0  0  0  0  0  0  0  0  0  0
   13.1417    0.1701   23.7319 C   0  0  0  0  0  0  0  0  0  0  0  0
    8.8422    0.8918   21.1542 O   0  0  0  0  0  0  0  0  0  0  0  0
   12.3308    2.4497   23.9242 O   0  0  0  0  0  0  0  0  0  0  0  0
   12.0985    1.1186   23.7015 C   0  0  0  0  0  0  0  0  0  0  0  0
   13.3527    3.0002   23.0988 C   0  0  0  0  0  0  0  0  0  0  0  0
   12.9020    4.3478   22.5398 C   0  0  0  0  0  0  0  0  0  0  0  0
    6.0168   -4.9156   20.9194 O   0  0  0  0  0  0  0  0  0  0  0  0
    5.3203   -7.2861   24.6201 O   0  0  0  0  0  0  0  0  0  0  0  0
   12.6158    5.3541   23.6349 C   0  0  0  0  0  0  0  0  0  0  0  0
   13.6005    6.2956   23.9901 C   0  0  0  0  0  0  0  0  0  0  0  0
   13.3583    7.2138   25.0295 C   0  0  0  0  0  0  0  0  0  0  0  0
   12.1295    7.1915   25.7159 C   0  0  0  0  0  0  0  0  0  0  0  0
   11.1319    6.2699   25.3435 C   0  0  0  0  0  0  0  0  0  0  0  0
   11.3740    5.3517   24.3027 C   0  0  0  0  0  0  0  0  0  0  0  0
   10.7932    0.7108   23.3742 C   0  0  0  0  0  0  0  0  0  0  0  0
    8.6687   -2.2014   22.9304 C   0  0  0  0  0  0  0  0  0  0  0  0
    7.4047   -2.7087   22.4316 C   0  0  0  0  0  0  0  0  0  0  0  0
    6.8250   -3.9367   22.9574 C   0  0  0  0  0  3  0  0  0  0  0  0
    6.1704   -4.9713   22.1390 C   0  0  0  0  0  0  0  0  0  0  0  0
    6.9492   -4.2611   24.2955 C   0  0  0  0  0  0  0  0  0  0  0  0
    5.8283   -6.2629   24.1714 C   0  0  0  0  0  0  0  0  0  0  0  0
    6.8392   -2.0128   21.4323 C   0  0  0  0  0  0  0  0  0  0  0  0
    6.6930   -0.1731   19.9103 C   0  0  0  0  0  0  0  0  0  0  0  0
    5.4914    0.4843   20.2121 C   0  0  0  0  0  0  0  0  0  0  0  0
    4.8423    1.1730   19.1830 C   0  0  0  0  0  0  0  0  0  0  0  0
    5.4124    1.1734   17.8923 C   0  0  0  0  0  0  0  0  0  0  0  0
    7.1871   -0.1290   18.5870 C   0  0  0  0  0  0  0  0  0  0  0  0
    5.7254   -6.0496   22.8341 N   0  0  0  0  0  0  0  0  0  0  0  0
    6.4827   -5.3475   24.9399 N   0  0  0  0  0  0  0  0  0  0  0  0
    7.3979   -0.8288   20.9387 N   0  0  0  0  0  0  0  0  0  0  0  0
    6.5609    0.5299   17.5908 N   0  0  0  0  0  0  0  0  0  0  0  0
   14.1644   -2.3187   23.4068 Cl  0  0  0  0  0  0  0  0  0  0  0  0
   11.4139   -2.5936   22.7281 H   0  0  0  0  0  0  0  0  0  0  0  0
   14.1462    0.4722   23.9850 H   0  0  0  0  0  0  0  0  0  0  0  0
   13.5923    2.3477   22.2618 H   0  0  0  0  0  0  0  0  0  0  0  0
   14.2666    3.1223   23.6684 H   0  0  0  0  0  0  0  0  0  0  0  0
   12.0119    4.2076   21.9351 H   0  0  0  0  0  0  0  0  0  0  0  0
   13.6692    4.7455   21.8739 H   0  0  0  0  0  0  0  0  0  0  0  0
   14.5433    6.3130   23.4642 H   0  0  0  0  0  0  0  0  0  0  0  0
   14.1149    7.9347   25.3024 H   0  0  0  0  0  0  0  0  0  0  0  0
   11.9454    7.8930   26.5168 H   0  0  0  0  0  0  0  0  0  0  0  0
   10.1829    6.2615   25.8598 H   0  0  0  0  0  0  0  0  0  0  0  0
   10.6102    4.6398   24.0259 H   0  0  0  0  0  0  0  0  0  0  0  0
   10.0060    1.4488   23.3647 H   0  0  0  0  0  0  0  0  0  0  0  0
    9.2200   -2.8023   23.6398 H   0  0  0  0  0  0  0  0  0  0  0  0
    7.4540   -3.5222   24.9530 H   0  0  0  0  0  0  0  0  0  0  0  0
    5.9096   -2.2976   20.9596 H   0  0  0  0  0  0  0  0  0  0  0  0
    5.0820    0.4762   21.2126 H   0  0  0  0  0  0  0  0  0  0  0  0
    3.9200    1.6746   19.4159 H   0  0  0  0  0  0  0  0  0  0  0  0
    4.9396    1.6991   17.0774 H   0  0  0  0  0  0  0  0  0  0  0  0
    8.1120   -0.6197   18.3214 H   0  0  0  0  0  0  0  0  0  0  0  0
    5.2544   -6.7680   22.3030 H   0  0  0  0  0  0  0  0  0  0  0  0
  1  2  1  0  0  0  0
  1  7  2  0  0  0  0
  1 35  1  0  0  0  0
  2  3  1  0  0  0  0
  2 21  2  0  0  0  0
  3  4  2  0  0  0  0
  3 20  1  0  0  0  0
  4  5  1  0  0  0  0
  4 38  1  0  0  0  0
  5  6  2  0  0  0  0
  5 37  1  0  0  0  0
  6  9  1  0  0  0  0
  6 39  1  0  0  0  0
  8  9  1  0  0  0  0
  8 10  1  0  0  0  0
  9 20  2  0  0  0  0
 10 11  1  0  0  0  0
 10 40  1  0  0  0  0
 10 41  1  0  0  0  0
 11 14  1  0  0  0  0
 11 42  1  0  0  0  0
 11 43  1  0  0  0  0
 12 24  2  0  0  0  0
 13 26  2  0  0  0  0
 14 15  2  0  0  0  0
 14 19  1  0  0  0  0
 15 16  1  0  0  0  0
 15 44  1  0  0  0  0
 16 17  2  0  0  0  0
 16 45  1  0  0  0  0
 17 18  1  0  0  0  0
 17 46  1  0  0  0  0
 18 19  2  0  0  0  0
 18 47  1  0  0  0  0
 19 48  1  0  0  0  0
 20 49  1  0  0  0  0
 21 22  1  0  0  0  0
 21 50  1  0  0  0  0
 22 23  1  0  0  0  0
 22 27  2  0  0  0  0
 23 24  1  0  0  0  0
 23 25  1  0  0  0  0
 24 33  1  0  0  0  0
 25 34  2  0  0  0  0
 25 51  1  0  0  0  0
 26 33  1  0  0  0  0
 26 34  1  0  0  0  0
 27 35  1  0  0  0  0
 27 52  1  0  0  0  0
 28 29  2  0  0  0  0
 28 32  1  0  0  0  0
 28 35  1  0  0  0  0
 29 30  1  0  0  0  0
 29 53  1  0  0  0  0
 30 31  2  0  0  0  0
 30 54  1  0  0  0  0
 31 36  1  0  0  0  0
 31 55  1  0  0  0  0
 32 36  2  0  0  0  0
 32 56  1  0  0  0  0
 33 57  1  0  0  0  0
M  END
$$$$
