7M8Z_ligand1
 OpenBabel04052409413D

 58 61  0  0  0  0  0  0  0  0999 V2000
    8.4867   -0.3611   21.3124 C   0  0  0  0  0  0  0  0  0  0  0  0
    9.2174   -1.1327   22.3308 C   0  0  0  0  0  0  0  0  0  0  0  0
   10.5630   -0.7005   22.7594 C   0  0  0  0  0  0  0  0  0  0  0  0
   11.6317   -1.6160   22.8033 C   0  0  0  0  0  0  0  0  0  0  0  0
   12.9049   -1.1830   23.2135 C   0  0  0  0  0  0  0  0  0  0  0  0
   13.1226    0.1675   23.5565 C   0  0  0  0  0  0  0  0  0  0  0  0
    8.8672    0.7360   20.8937 O   0  0  0  0  0  0  0  0  0  0  0  0
   12.3247    2.4104   23.8418 O   0  0  0  0  0  0  0  0  0  0  0  0
    7.3337   -0.9151   20.8551 N   0  0  0  0  0  0  0  0  0  0  0  0
   12.0630    1.0979   23.5100 C   0  0  0  0  0  0  0  0  0  0  0  0
   11.3989    3.3937   23.3872 C   0  0  0  0  0  0  0  0  0  0  0  0
   11.9130    4.8301   23.5993 C   0  0  0  0  0  0  0  0  0  0  0  0
    5.8777   -4.8640   20.8552 O   0  0  0  0  0  0  0  0  0  0  0  0
    5.0562   -7.2875   24.6061 O   0  0  0  0  0  0  0  0  0  0  0  0
   13.3032    5.1509   23.0060 C   0  0  0  0  0  0  0  0  0  0  0  0
   13.4574    4.6952   21.5523 C   0  0  0  0  0  0  0  0  0  0  0  0
   14.4156    4.5873   23.8841 C   0  0  0  0  0  0  0  0  0  0  0  0
   10.7788    0.6420   23.1358 C   0  0  0  0  0  0  0  0  0  0  0  0
    8.6858   -2.2888   22.7989 C   0  0  0  0  0  0  0  0  0  0  0  0
    7.3837   -2.7810   22.3762 C   0  0  0  0  0  0  0  0  0  0  0  0
    6.7759   -3.9959   22.9225 C   0  0  0  0  0  0  0  0  0  0  0  0
    6.0388   -4.9537   22.0696 C   0  0  0  0  0  0  0  0  0  0  0  0
    6.9387   -4.3123   24.2388 C   0  0  0  0  0  0  0  0  0  0  0  0
    5.6021   -6.3155   24.0905 C   0  0  0  0  0  0  0  0  0  0  0  0
    6.7752   -2.0700   21.4108 C   0  0  0  0  0  0  0  0  0  0  0  0
    6.5872   -0.2755   19.8442 C   0  0  0  0  0  0  0  0  0  0  0  0
    5.3194    0.2508   20.1363 C   0  0  0  0  0  0  0  0  0  0  0  0
    4.6239    0.9025   19.1124 C   0  0  0  0  0  0  0  0  0  0  0  0
    5.2209    1.0020   17.8377 C   0  0  0  0  0  0  0  0  0  0  0  0
    7.0976   -0.1403   18.5369 C   0  0  0  0  0  0  0  0  0  0  0  0
    5.4861   -6.0532   22.7318 N   0  0  0  0  0  0  0  0  0  0  0  0
    6.3740   -5.4240   24.8294 N   0  0  0  0  0  0  0  0  0  0  0  0
    6.4330    0.4916   17.5504 N   0  0  0  0  0  0  0  0  0  0  0  0
   13.4585    6.5551   23.0290 O   0  0  0  0  0  0  0  0  0  0  0  0
   14.1902   -2.3241   23.2965 Cl  0  0  0  0  0  0  0  0  0  0  0  0
   11.4824   -2.6472   22.5203 H   0  0  0  0  0  0  0  0  0  0  0  0
   14.1078    0.4947   23.8501 H   0  0  0  0  0  0  0  0  0  0  0  0
   10.4576    3.2913   23.9296 H   0  0  0  0  0  0  0  0  0  0  0  0
   11.1812    3.2388   22.3286 H   0  0  0  0  0  0  0  0  0  0  0  0
   11.9095    5.0577   24.6663 H   0  0  0  0  0  0  0  0  0  0  0  0
   11.1801    5.5036   23.1584 H   0  0  0  0  0  0  0  0  0  0  0  0
   14.4090    5.0129   21.1255 H   0  0  0  0  0  0  0  0  0  0  0  0
   13.4116    3.6108   21.4726 H   0  0  0  0  0  0  0  0  0  0  0  0
   12.6575    5.0961   20.9378 H   0  0  0  0  0  0  0  0  0  0  0  0
   15.3846    4.9745   23.5984 H   0  0  0  0  0  0  0  0  0  0  0  0
   14.2498    4.8705   24.9212 H   0  0  0  0  0  0  0  0  0  0  0  0
   14.4717    3.5041   23.8185 H   0  0  0  0  0  0  0  0  0  0  0  0
    9.9393    1.3189   23.1262 H   0  0  0  0  0  0  0  0  0  0  0  0
    9.2514   -2.8707   23.5132 H   0  0  0  0  0  0  0  0  0  0  0  0
    7.4949   -3.6543   24.8905 H   0  0  0  0  0  0  0  0  0  0  0  0
    5.8111   -2.3326   20.9998 H   0  0  0  0  0  0  0  0  0  0  0  0
    4.8876    0.1646   21.1233 H   0  0  0  0  0  0  0  0  0  0  0  0
    3.6443    1.2920   19.3286 H   0  0  0  0  0  0  0  0  0  0  0  0
    4.7237    1.4876   17.0142 H   0  0  0  0  0  0  0  0  0  0  0  0
    8.0583   -0.5509   18.2671 H   0  0  0  0  0  0  0  0  0  0  0  0
    4.9558   -6.7078   22.1765 H   0  0  0  0  0  0  0  0  0  0  0  0
    6.4811   -5.6025   25.8180 H   0  0  0  0  0  0  0  0  0  0  0  0
   14.3180    6.7711   22.6997 H   0  0  0  0  0  0  0  0  0  0  0  0
  1  2  1  0  0  0  0
  1  7  2  0  0  0  0
  1  9  1  0  0  0  0
  2  3  1  0  0  0  0
  2 19  2  0  0  0  0
  3  4  2  0  0  0  0
  3 18  1  0  0  0  0
  4  5  1  0  0  0  0
  4 36  1  0  0  0  0
  5  6  2  0  0  0  0
  5 35  1  0  0  0  0
  6 10  1  0  0  0  0
  6 37  1  0  0  0  0
  8 10  1  0  0  0  0
  8 11  1  0  0  0  0
  9 25  1  0  0  0  0
  9 26  1  0  0  0  0
 10 18  2  0  0  0  0
 11 12  1  0  0  0  0
 11 38  1  0  0  0  0
 11 39  1  0  0  0  0
 12 15  1  0  0  0  0
 12 40  1  0  0  0  0
 12 41  1  0  0  0  0
 13 22  2  0  0  0  0
 14 24  2  0  0  0  0
 15 16  1  0  0  0  0
 15 17  1  0  0  0  0
 15 34  1  0  0  0  0
 16 42  1  0  0  0  0
 16 43  1  0  0  0  0
 16 44  1  0  0  0  0
 17 45  1  0  0  0  0
 17 46  1  0  0  0  0
 17 47  1  0  0  0  0
 18 48  1  0  0  0  0
 19 20  1  0  0  0  0
 19 49  1  0  0  0  0
 20 21  1  0  0  0  0
 20 25  2  0  0  0  0
 21 22  1  0  0  0  0
 21 23  2  0  0  0  0
 22 31  1  0  0  0  0
 23 32  1  0  0  0  0
 23 50  1  0  0  0  0
 24 31  1  0  0  0  0
 24 32  1  0  0  0  0
 25 51  1  0  0  0  0
 26 27  2  0  0  0  0
 26 30  1  0  0  0  0
 27 28  1  0  0  0  0
 27 52  1  0  0  0  0
 28 29  2  0  0  0  0
 28 53  1  0  0  0  0
 29 33  1  0  0  0  0
 29 54  1  0  0  0  0
 30 33  2  0  0  0  0
 30 55  1  0  0  0  0
 31 56  1  0  0  0  0
 32 57  1  0  0  0  0
 34 58  1  0  0  0  0
M  END
$$$$
