7M90_ligand5
 OpenBabel04052409413D

 60 64  0  0  0  0  0  0  0  0999 V2000
    8.5229   -0.2098   21.3923 C   0  0  0  0  0  0  0  0  0  0  0  0
    6.6164   -0.0732   19.9392 C   0  0  0  0  0  0  0  0  0  0  0  0
    7.1283    0.0711   18.6345 C   0  0  0  0  0  0  0  0  0  0  0  0
    5.2332    1.1813   17.9335 C   0  0  0  0  0  0  0  0  0  0  0  0
    4.6399    1.0908   19.2115 C   0  0  0  0  0  0  0  0  0  0  0  0
    5.3438    0.4462   20.2350 C   0  0  0  0  0  0  0  0  0  0  0  0
    6.7921   -1.9068   21.4569 C   0  0  0  0  0  0  0  0  0  0  0  0
    7.4007   -2.6509   22.3955 C   0  0  0  0  0  0  0  0  0  0  0  0
    6.8050   -3.8880   22.8988 C   0  0  0  0  0  3  0  0  0  0  0  0
    7.0124   -4.3183   24.1977 C   0  0  0  0  0  0  0  0  0  0  0  0
    5.7381   -6.2325   24.0369 C   0  0  0  0  0  0  0  0  0  0  0  0
    8.7068   -2.1807   22.8273 C   0  0  0  0  0  0  0  0  0  0  0  0
    9.2412   -1.0175   22.3860 C   0  0  0  0  0  0  0  0  0  0  0  0
   10.5877   -0.6164   22.8033 C   0  0  0  0  0  0  0  0  0  0  0  0
   11.6814   -1.4301   22.4619 C   0  0  0  0  0  0  0  0  0  0  0  0
   12.9784   -1.0353   22.8208 C   0  0  0  0  0  0  0  0  0  0  0  0
   12.8980    6.5983   24.4742 C   0  0  0  0  0  0  0  0  0  0  0  0
   13.5714    4.6190   23.2369 C   0  0  0  0  0  0  0  0  0  0  0  0
   13.8812    5.4732   21.9999 C   0  0  0  0  0  0  0  0  0  0  0  0
   13.6681    7.4548   23.4575 C   0  0  0  0  0  0  0  0  0  0  0  0
    6.0352   -4.8328   22.0701 C   0  0  0  0  0  0  0  0  0  0  0  0
   13.1847    0.1664   23.5252 C   0  0  0  0  0  0  0  0  0  0  0  0
   12.0963    0.9912   23.8727 C   0  0  0  0  0  0  0  0  0  0  0  0
   11.3632    3.1349   24.6705 C   0  0  0  0  0  0  0  0  0  0  0  0
   12.0077    4.4593   25.1146 C   0  0  0  0  0  0  0  0  0  0  0  0
   10.7890    0.5902   23.5044 C   0  0  0  0  0  0  0  0  0  0  0  0
    7.3559   -0.7339   20.9369 N   0  0  0  0  0  0  0  0  0  0  0  0
    6.4502    0.6849   17.6466 N   0  0  0  0  0  0  0  0  0  0  0  0
    5.5411   -5.9122   22.7315 N   0  0  0  0  0  0  0  0  0  0  0  0
    6.5352   -5.4289   24.7961 N   0  0  0  0  0  0  0  0  0  0  0  0
   12.4901    5.2581   23.9896 N   0  0  0  0  0  0  0  0  0  0  0  0
   14.1121    6.8686   22.3399 N   0  0  0  0  0  0  0  0  0  0  0  0
    8.9378    0.8824   20.9953 O   0  0  0  0  0  0  0  0  0  0  0  0
    5.8319   -4.7021   20.8647 O   0  0  0  0  0  0  0  0  0  0  0  0
    5.1850   -7.2448   24.4595 O   0  0  0  0  0  0  0  0  0  0  0  0
   12.3806    2.1479   24.5628 O   0  0  0  0  0  0  0  0  0  0  0  0
   13.8791    8.6429   23.6896 O   0  0  0  0  0  0  0  0  0  0  0  0
   14.3034   -2.0509   22.4143 Cl  0  0  0  0  0  0  0  0  0  0  0  0
    8.1022   -0.3165   18.3739 H   0  0  0  0  0  0  0  0  0  0  0  0
    4.7327    1.6508   17.1018 H   0  0  0  0  0  0  0  0  0  0  0  0
    3.6573    1.4753   19.4251 H   0  0  0  0  0  0  0  0  0  0  0  0
    4.9141    0.3530   21.2212 H   0  0  0  0  0  0  0  0  0  0  0  0
    5.8269   -2.1565   21.0381 H   0  0  0  0  0  0  0  0  0  0  0  0
    7.5979   -3.6533   24.8678 H   0  0  0  0  0  0  0  0  0  0  0  0
    9.2798   -2.7847   23.5172 H   0  0  0  0  0  0  0  0  0  0  0  0
   11.5294   -2.3522   21.9210 H   0  0  0  0  0  0  0  0  0  0  0  0
   12.0148    7.1492   24.7992 H   0  0  0  0  0  0  0  0  0  0  0  0
   13.5417    6.4920   25.3487 H   0  0  0  0  0  0  0  0  0  0  0  0
   14.4565    4.4932   23.8633 H   0  0  0  0  0  0  0  0  0  0  0  0
   13.2794    3.6314   22.8878 H   0  0  0  0  0  0  0  0  0  0  0  0
   13.0419    5.4238   21.3074 H   0  0  0  0  0  0  0  0  0  0  0  0
   14.7530    5.0815   21.4752 H   0  0  0  0  0  0  0  0  0  0  0  0
   14.1880    0.4606   23.7961 H   0  0  0  0  0  0  0  0  0  0  0  0
   10.8253    3.2791   23.7313 H   0  0  0  0  0  0  0  0  0  0  0  0
   10.6432    2.8065   25.4196 H   0  0  0  0  0  0  0  0  0  0  0  0
   12.8094    4.2897   25.8301 H   0  0  0  0  0  0  0  0  0  0  0  0
   11.2443    5.0420   25.6318 H   0  0  0  0  0  0  0  0  0  0  0  0
    9.9277    1.1910   23.7573 H   0  0  0  0  0  0  0  0  0  0  0  0
    4.9848   -6.5607   22.1944 H   0  0  0  0  0  0  0  0  0  0  0  0
   14.6163    7.4380   21.6727 H   0  0  0  0  0  0  0  0  0  0  0  0
  1 13  1  0  0  0  0
  1 27  1  0  0  0  0
  1 33  2  0  0  0  0
  2  3  2  0  0  0  0
  2  6  1  0  0  0  0
  2 27  1  0  0  0  0
  3 28  1  0  0  0  0
  3 39  1  0  0  0  0
  4  5  1  0  0  0  0
  4 28  2  0  0  0  0
  4 40  1  0  0  0  0
  5  6  2  0  0  0  0
  5 41  1  0  0  0  0
  6 42  1  0  0  0  0
  7  8  2  0  0  0  0
  7 27  1  0  0  0  0
  7 43  1  0  0  0  0
  8  9  1  0  0  0  0
  8 12  1  0  0  0  0
  9 10  1  0  0  0  0
  9 21  1  0  0  0  0
 10 30  2  0  0  0  0
 10 44  1  0  0  0  0
 11 29  1  0  0  0  0
 11 30  1  0  0  0  0
 11 35  2  0  0  0  0
 12 13  2  0  0  0  0
 12 45  1  0  0  0  0
 13 14  1  0  0  0  0
 14 15  2  0  0  0  0
 14 26  1  0  0  0  0
 15 16  1  0  0  0  0
 15 46  1  0  0  0  0
 16 22  2  0  0  0  0
 16 38  1  0  0  0  0
 17 20  1  0  0  0  0
 17 31  1  0  0  0  0
 17 47  1  0  0  0  0
 17 48  1  0  0  0  0
 18 19  1  0  0  0  0
 18 31  1  0  0  0  0
 18 49  1  0  0  0  0
 18 50  1  0  0  0  0
 19 32  1  0  0  0  0
 19 51  1  0  0  0  0
 19 52  1  0  0  0  0
 20 32  1  0  0  0  0
 20 37  2  0  0  0  0
 21 29  1  0  0  0  0
 21 34  2  0  0  0  0
 22 23  1  0  0  0  0
 22 53  1  0  0  0  0
 23 26  2  0  0  0  0
 23 36  1  0  0  0  0
 24 25  1  0  0  0  0
 24 36  1  0  0  0  0
 24 54  1  0  0  0  0
 24 55  1  0  0  0  0
 25 31  1  0  0  0  0
 25 56  1  0  0  0  0
 25 57  1  0  0  0  0
 26 58  1  0  0  0  0
 29 59  1  0  0  0  0
 32 60  1  0  0  0  0
M  END
$$$$
