7N44_ligand1
 OpenBabel04052409413D

 54 58  0  0  0  0  0  0  0  0999 V2000
    8.4777   -0.2389   21.0732 C   0  0  0  0  0  0  0  0  0  0  0  0
    9.2306   -1.0407   22.0510 C   0  0  0  0  0  0  0  0  0  0  0  0
    6.7455   -5.7279   24.1355 N   0  0  0  0  0  0  0  0  0  0  0  0
    7.3146   -0.7789   20.6255 N   0  0  0  0  0  0  0  0  0  0  0  0
   12.8750   -1.0484   23.0956 C   0  0  0  0  0  0  0  0  0  0  0  0
   13.0629    0.3010   23.4386 C   0  0  0  0  0  0  0  0  0  0  0  0
   12.0091    1.2293   23.3366 C   0  0  0  0  0  0  0  0  0  0  0  0
   11.3269    3.5375   23.3513 C   0  0  0  0  0  0  0  0  0  0  0  0
   11.7961    4.8866   23.8010 C   0  0  0  0  0  0  0  0  0  0  0  0
   12.9335    5.5537   23.4042 C   0  0  0  0  0  0  0  0  0  0  0  0
   13.9447    5.1196   22.3958 C   0  0  0  0  0  0  0  0  0  0  0  0
   11.6242    6.7248   25.1127 C   0  0  0  0  0  0  0  0  0  0  0  0
    8.7428   -2.2480   22.4307 C   0  0  0  0  0  0  0  0  0  0  0  0
    7.4596   -2.7632   21.9739 C   0  0  0  0  0  0  0  0  0  0  0  0
    6.2138   -4.9675   21.4750 C   0  0  0  0  0  0  0  0  0  0  0  0
    7.1811   -4.5109   23.6585 C   0  0  0  0  0  0  0  0  0  0  0  0
    6.0108   -6.5925   23.3318 C   0  0  0  0  0  0  0  0  0  0  0  0
    6.8027   -1.9920   21.0913 C   0  0  0  0  0  0  0  0  0  0  0  0
    5.2928    0.4516   20.0591 C   0  0  0  0  0  0  0  0  0  0  0  0
    4.5688    1.1764   19.1049 C   0  0  0  0  0  0  0  0  0  0  0  0
    5.1146    1.3258   17.8135 C   0  0  0  0  0  0  0  0  0  0  0  0
   10.7447    0.7682   22.9035 C   0  0  0  0  0  0  0  0  0  0  0  0
    6.9359   -4.0635   22.3967 C   0  0  0  0  0  0  0  0  0  0  0  0
    6.5353   -0.0851   19.6833 C   0  0  0  0  0  0  0  0  0  0  0  0
    7.0013    0.1161   18.3679 C   0  0  0  0  0  0  0  0  0  0  0  0
   10.5530   -0.5813   22.5259 C   0  0  0  0  0  0  0  0  0  0  0  0
   11.6272   -1.4896   22.6262 C   0  0  0  0  0  0  0  0  0  0  0  0
   11.0399    5.5878   24.7472 N   0  0  0  0  0  0  0  0  0  0  0  0
    5.7916   -6.1832   22.0222 N   0  0  0  0  0  0  0  0  0  0  0  0
    6.3040    0.8111   17.4530 N   0  0  0  0  0  0  0  0  0  0  0  0
    8.8528    0.8652   20.6738 O   0  0  0  0  0  0  0  0  0  0  0  0
   12.2812    2.5358   23.6764 O   0  0  0  0  0  0  0  0  0  0  0  0
    5.9606   -4.7418   20.2915 O   0  0  0  0  0  0  0  0  0  0  0  0
    5.5762   -7.6567   23.7608 O   0  0  0  0  0  0  0  0  0  0  0  0
   13.1175    7.0609   24.2672 S   0  0  0  0  0  0  0  0  0  0  0  0
   14.1748   -2.1673   23.2457 Cl  0  0  0  0  0  0  0  0  0  0  0  0
    6.9191   -6.0054   25.0916 H   0  0  0  0  0  0  0  0  0  0  0  0
   14.0320    0.6303   23.7663 H   0  0  0  0  0  0  0  0  0  0  0  0
   11.1662    3.5316   22.2752 H   0  0  0  0  0  0  0  0  0  0  0  0
   10.3720    3.3108   23.8289 H   0  0  0  0  0  0  0  0  0  0  0  0
   14.5771    5.9514   22.0847 H   0  0  0  0  0  0  0  0  0  0  0  0
   14.5871    4.3418   22.8048 H   0  0  0  0  0  0  0  0  0  0  0  0
   13.4574    4.7170   21.5077 H   0  0  0  0  0  0  0  0  0  0  0  0
   11.1651    7.3707   25.8464 H   0  0  0  0  0  0  0  0  0  0  0  0
    9.3267   -2.8500   23.1102 H   0  0  0  0  0  0  0  0  0  0  0  0
    7.7081   -3.8839   24.3620 H   0  0  0  0  0  0  0  0  0  0  0  0
    5.8444   -2.2557   20.6667 H   0  0  0  0  0  0  0  0  0  0  0  0
    4.9077    0.3244   21.0602 H   0  0  0  0  0  0  0  0  0  0  0  0
    3.6178    1.5951   19.3862 H   0  0  0  0  0  0  0  0  0  0  0  0
    4.5977    1.8645   17.0382 H   0  0  0  0  0  0  0  0  0  0  0  0
    9.9082    1.4449   22.8533 H   0  0  0  0  0  0  0  0  0  0  0  0
    7.9545   -0.2778   18.0454 H   0  0  0  0  0  0  0  0  0  0  0  0
   11.5035   -2.5247   22.3448 H   0  0  0  0  0  0  0  0  0  0  0  0
    5.2719   -6.8099   21.4252 H   0  0  0  0  0  0  0  0  0  0  0  0
  1  2  1  0  0  0  0
  1  4  1  0  0  0  0
  1 31  2  0  0  0  0
  2 13  2  0  0  0  0
  2 26  1  0  0  0  0
  3 16  1  0  0  0  0
  3 17  1  0  0  0  0
  3 37  1  0  0  0  0
  4 18  1  0  0  0  0
  4 24  1  0  0  0  0
  5  6  2  0  0  0  0
  5 27  1  0  0  0  0
  5 36  1  0  0  0  0
  6  7  1  0  0  0  0
  6 38  1  0  0  0  0
  7 22  2  0  0  0  0
  7 32  1  0  0  0  0
  8  9  1  0  0  0  0
  8 32  1  0  0  0  0
  8 39  1  0  0  0  0
  8 40  1  0  0  0  0
  9 10  2  0  0  0  0
  9 28  1  0  0  0  0
 10 11  1  0  0  0  0
 10 35  1  0  0  0  0
 11 41  1  0  0  0  0
 11 42  1  0  0  0  0
 11 43  1  0  0  0  0
 12 28  2  0  0  0  0
 12 35  1  0  0  0  0
 12 44  1  0  0  0  0
 13 14  1  0  0  0  0
 13 45  1  0  0  0  0
 14 18  2  0  0  0  0
 14 23  1  0  0  0  0
 15 23  1  0  0  0  0
 15 29  1  0  0  0  0
 15 33  2  0  0  0  0
 16 23  2  0  0  0  0
 16 46  1  0  0  0  0
 17 29  1  0  0  0  0
 17 34  2  0  0  0  0
 18 47  1  0  0  0  0
 19 20  2  0  0  0  0
 19 24  1  0  0  0  0
 19 48  1  0  0  0  0
 20 21  1  0  0  0  0
 20 49  1  0  0  0  0
 21 30  2  0  0  0  0
 21 50  1  0  0  0  0
 22 26  1  0  0  0  0
 22 51  1  0  0  0  0
 24 25  2  0  0  0  0
 25 30  1  0  0  0  0
 25 52  1  0  0  0  0
 26 27  2  0  0  0  0
 27 53  1  0  0  0  0
 29 54  1  0  0  0  0
M  END
$$$$
