7N8C_ligand1
 OpenBabel04052409413D

 37 39  0  0  0  0  0  0  0  0999 V2000
    5.6202   -0.6552   20.3167 C   0  0  0  0  0  0  0  0  0  0  0  0
    5.9085   -1.8935   21.0049 C   0  0  0  0  0  0  0  0  0  0  0  0
    7.4539   -0.5594   22.5025 C   0  0  0  0  0  0  0  0  0  0  0  0
    8.9602   -0.8586   22.4628 C   0  0  0  0  0  0  0  0  0  0  0  0
    8.4593   -3.2174   23.0262 C   0  0  0  0  0  0  0  0  0  0  0  0
    6.9585   -2.8744   23.0209 C   0  0  0  0  0  0  0  0  0  0  0  0
   12.1476   -3.2679   25.3085 C   0  0  0  0  0  0  0  0  0  0  0  0
   12.9800   -1.6603   23.6823 C   0  0  0  0  0  0  0  0  0  0  0  0
   10.5852   -2.2062   23.7469 C   0  0  0  0  0  0  0  0  0  0  0  0
   10.8441   -3.0973   24.8141 C   0  0  0  0  0  0  0  0  0  0  0  0
   13.2174   -2.5394   24.7598 C   0  0  0  0  0  0  0  0  0  0  0  0
   11.6741   -1.4977   23.1832 C   0  0  0  0  0  0  0  0  0  0  0  0
    4.4809    1.3830   20.1980 C   0  0  0  0  0  0  0  0  0  0  0  0
    6.0510    0.8370   18.4386 C   0  0  0  0  0  0  0  0  0  0  0  0
    6.2903   -0.4223   19.1215 C   0  0  0  0  0  3  0  0  0  0  0  0
    4.7297    0.2205   20.8476 N   0  0  0  0  0  0  0  0  0  0  0  0
    5.1631    1.6310   19.0638 N   0  0  0  0  0  0  0  0  0  0  0  0
    6.7008   -1.7618   22.1001 N   0  0  0  0  0  0  0  0  0  0  0  0
    9.2663   -2.0245   23.2858 N   0  0  0  0  0  0  0  0  0  0  0  0
    3.6707    2.2262   20.5765 O   0  0  0  0  0  0  0  0  0  0  0  0
    6.5935    1.2033   17.4028 O   0  0  0  0  0  0  0  0  0  0  0  0
    5.4219   -2.9693   20.6536 O   0  0  0  0  0  0  0  0  0  0  0  0
   14.2673   -0.7631   22.9674 Cl  0  0  0  0  0  0  0  0  0  0  0  0
   14.7991   -2.7311   25.4268 Cl  0  0  0  0  0  0  0  0  0  0  0  0
    7.2650    0.3273   21.9012 H   0  0  0  0  0  0  0  0  0  0  0  0
    7.1611   -0.2954   23.5190 H   0  0  0  0  0  0  0  0  0  0  0  0
    9.4992    0.0093   22.8378 H   0  0  0  0  0  0  0  0  0  0  0  0
    9.2878   -1.0367   21.4372 H   0  0  0  0  0  0  0  0  0  0  0  0
    8.7512   -3.6303   22.0619 H   0  0  0  0  0  0  0  0  0  0  0  0
    8.6340   -3.9997   23.7616 H   0  0  0  0  0  0  0  0  0  0  0  0
    6.6459   -2.5774   24.0234 H   0  0  0  0  0  0  0  0  0  0  0  0
    6.3796   -3.7679   22.7852 H   0  0  0  0  0  0  0  0  0  0  0  0
   12.3243   -3.9620   26.1157 H   0  0  0  0  0  0  0  0  0  0  0  0
   10.0420   -3.6468   25.2812 H   0  0  0  0  0  0  0  0  0  0  0  0
   11.5284   -0.8187   22.3568 H   0  0  0  0  0  0  0  0  0  0  0  0
    6.9961   -1.1288   18.7116 H   0  0  0  0  0  0  0  0  0  0  0  0
    4.9689    2.5143   18.6157 H   0  0  0  0  0  0  0  0  0  0  0  0
  1  2  1  0  0  0  0
  1 15  1  0  0  0  0
  1 16  2  0  0  0  0
  2 18  1  0  0  0  0
  2 22  2  0  0  0  0
  3  4  1  0  0  0  0
  3 18  1  0  0  0  0
  3 25  1  0  0  0  0
  3 26  1  0  0  0  0
  4 19  1  0  0  0  0
  4 27  1  0  0  0  0
  4 28  1  0  0  0  0
  5  6  1  0  0  0  0
  5 19  1  0  0  0  0
  5 29  1  0  0  0  0
  5 30  1  0  0  0  0
  6 18  1  0  0  0  0
  6 31  1  0  0  0  0
  6 32  1  0  0  0  0
  7 10  2  0  0  0  0
  7 11  1  0  0  0  0
  7 33  1  0  0  0  0
  8 11  2  0  0  0  0
  8 12  1  0  0  0  0
  8 23  1  0  0  0  0
  9 10  1  0  0  0  0
  9 12  2  0  0  0  0
  9 19  1  0  0  0  0
 10 34  1  0  0  0  0
 11 24  1  0  0  0  0
 12 35  1  0  0  0  0
 13 16  1  0  0  0  0
 13 17  1  0  0  0  0
 13 20  2  0  0  0  0
 14 15  1  0  0  0  0
 14 17  1  0  0  0  0
 14 21  2  0  0  0  0
 15 36  1  0  0  0  0
 17 37  1  0  0  0  0
M  END
$$$$
