7P2G_ligand
 OpenBabel04052409413D

 34 36  0  0  1  0  0  0  0  0999 V2000
   11.4446   -0.9421   23.3004 C   0  0  0  0  0  0  0  0  0  0  0  0
   10.9223    0.2919   22.8706 C   0  0  0  0  0  0  0  0  0  0  0  0
    9.6231    0.3555   22.3323 C   0  0  0  0  0  0  0  0  0  0  0  0
    8.8448   -0.8219   22.2075 C   0  0  0  0  0  0  0  0  0  0  0  0
    7.0924   -0.0654   20.6347 C   0  0  0  0  0  0  0  0  0  0  0  0
    5.6717   -0.3533   20.1296 C   0  0  2  0  0  0  0  0  0  0  0  0
    5.5948   -0.2987   18.5858 C   0  0  0  0  0  0  0  0  0  0  0  0
    5.3215    1.1064   18.0283 C   0  0  0  0  0  0  0  0  0  0  0  0
    4.1799    1.7040   20.0929 C   0  0  0  0  0  0  0  0  0  0  0  0
    3.2874    2.5981   20.7134 C   0  0  0  0  0  0  0  0  0  0  0  0
    2.8634    2.3605   22.0342 C   0  0  0  0  0  0  0  0  0  0  0  0
    3.3392    1.2359   22.7369 C   0  0  0  0  0  0  0  0  0  0  0  0
    4.2425    0.3489   22.1207 C   0  0  0  0  0  0  0  0  0  0  0  0
    4.6693    0.5785   20.7984 C   0  0  0  0  0  0  0  0  0  0  0  0
    9.3588   -2.0440   22.6837 C   0  0  0  0  0  0  0  0  0  0  0  0
   10.6566   -2.1036   23.2250 C   0  0  0  0  0  0  0  0  0  0  0  0
   13.3926   -1.0640   24.0458 I   0  0  0  0  0  0  0  0  0  0  0  0
    7.5429   -0.8334   21.6416 N   0  0  0  0  0  0  0  0  0  0  0  0
    4.6015    1.9575   18.7701 N   0  0  0  0  0  0  0  0  0  0  0  0
    7.7537    0.8258   20.1043 O   0  0  0  0  0  0  0  0  0  0  0  0
    5.7697    1.4301   16.9349 O   0  0  0  0  0  0  0  0  0  0  0  0
   11.5174    1.1891   22.9470 H   0  0  0  0  0  0  0  0  0  0  0  0
    9.2426    1.3161   22.0190 H   0  0  0  0  0  0  0  0  0  0  0  0
    5.4184   -1.3725   20.4271 H   0  0  0  0  0  0  0  0  0  0  0  0
    4.7841   -0.9373   18.2494 H   0  0  0  0  0  0  0  0  0  0  0  0
    6.4956   -0.7167   18.1382 H   0  0  0  0  0  0  0  0  0  0  0  0
    2.9269    3.4680   20.1804 H   0  0  0  0  0  0  0  0  0  0  0  0
    2.1770    3.0431   22.5123 H   0  0  0  0  0  0  0  0  0  0  0  0
    3.0182    1.0567   23.7513 H   0  0  0  0  0  0  0  0  0  0  0  0
    4.6171   -0.5009   22.6707 H   0  0  0  0  0  0  0  0  0  0  0  0
    8.7713   -2.9491   22.6169 H   0  0  0  0  0  0  0  0  0  0  0  0
   11.0546   -3.0430   23.5784 H   0  0  0  0  0  0  0  0  0  0  0  0
    6.9413   -1.5898   21.9352 H   0  0  0  0  0  0  0  0  0  0  0  0
    4.3923    2.8682   18.3764 H   0  0  0  0  0  0  0  0  0  0  0  0
  1  2  2  0  0  0  0
  1 16  1  0  0  0  0
  1 17  1  0  0  0  0
  2  3  1  0  0  0  0
  2 22  1  0  0  0  0
  3  4  2  0  0  0  0
  3 23  1  0  0  0  0
  4 15  1  0  0  0  0
  4 18  1  0  0  0  0
  5  6  1  0  0  0  0
  5 18  1  0  0  0  0
  5 20  2  0  0  0  0
  6  7  1  0  0  0  0
  6 14  1  0  0  0  0
  6 24  1  1  0  0  0
  7  8  1  0  0  0  0
  7 25  1  0  0  0  0
  7 26  1  0  0  0  0
  8 19  1  0  0  0  0
  8 21  2  0  0  0  0
  9 10  2  0  0  0  0
  9 14  1  0  0  0  0
  9 19  1  0  0  0  0
 10 11  1  0  0  0  0
 10 27  1  0  0  0  0
 11 12  2  0  0  0  0
 11 28  1  0  0  0  0
 12 13  1  0  0  0  0
 12 29  1  0  0  0  0
 13 14  2  0  0  0  0
 13 30  1  0  0  0  0
 15 16  2  0  0  0  0
 15 31  1  0  0  0  0
 16 32  1  0  0  0  0
 18 33  1  0  0  0  0
 19 34  1  0  0  0  0
M  END
$$$$
