4N0
  -OEChem-05102419293D

 34 36  0     1  0  0  0  0  0999 V2000
   -2.9150    0.1150    0.1910 C   0  0  0  0  0  0  0  0  0  0  0  0
   -1.9030   -0.1280   -0.7190 C   0  0  0  0  0  0  0  0  0  0  0  0
   -0.5940    0.1670   -0.3930 C   0  0  0  0  0  0  0  0  0  0  0  0
   -0.2940    0.7100    0.8500 C   0  0  0  0  0  0  0  0  0  0  0  0
    2.0320    0.2250    0.7390 C   0  0  0  0  0  0  0  0  0  0  0  0
    3.4480    0.4860    1.1830 C   0  0  2  0  0  0  0  0  0  0  0  0
    3.8640    1.8940    0.7560 C   0  0  0  0  0  0  0  0  0  0  0  0
    4.0520    1.9420   -0.7370 C   0  0  0  0  0  0  0  0  0  0  0  0
    4.8840   -0.2900   -0.7200 C   0  0  0  0  0  0  0  0  0  0  0  0
    5.7310   -1.2210   -1.3050 C   0  0  0  0  0  0  0  0  0  0  0  0
    6.0580   -2.3780   -0.6240 C   0  0  0  0  0  0  0  0  0  0  0  0
    5.5420   -2.6090    0.6380 C   0  0  0  0  0  0  0  0  0  0  0  0
    4.6990   -1.6830    1.2240 C   0  0  0  0  0  0  0  0  0  0  0  0
    4.3680   -0.5250    0.5480 C   0  0  0  0  0  0  0  0  0  0  0  0
   -1.3140    0.9530    1.7620 C   0  0  0  0  0  0  0  0  0  0  0  0
   -2.6210    0.6600    1.4280 C   0  0  0  0  0  0  0  0  0  0  0  0
   -4.9000   -0.3340   -0.3080 I   0  0  0  0  0  0  0  0  0  0  0  0
    1.0310    1.0100    1.1840 N   0  0  0  0  0  0  0  0  0  0  0  0
    4.5480    0.8830   -1.4030 N   0  0  0  0  0  0  0  0  0  0  0  0
    1.7930   -0.6930   -0.0180 O   0  0  0  0  0  0  0  0  0  0  0  0
    3.7530    2.9470   -1.3470 O   0  0  0  0  0  0  0  0  0  0  0  0
   -2.1360   -0.5500   -1.6850 H   0  0  0  0  0  0  0  0  0  0  0  0
    0.1970   -0.0230   -1.1030 H   0  0  0  0  0  0  0  0  0  0  0  0
    3.5110    0.4030    2.2680 H   0  0  0  0  0  0  0  0  0  0  0  0
    3.0900    2.6040    1.0460 H   0  0  0  0  0  0  0  0  0  0  0  0
    4.8010    2.1590    1.2460 H   0  0  0  0  0  0  0  0  0  0  0  0
    6.1330   -1.0420   -2.2910 H   0  0  0  0  0  0  0  0  0  0  0  0
    6.7170   -3.1030   -1.0790 H   0  0  0  0  0  0  0  0  0  0  0  0
    5.8000   -3.5140    1.1680 H   0  0  0  0  0  0  0  0  0  0  0  0
    4.2970   -1.8660    2.2100 H   0  0  0  0  0  0  0  0  0  0  0  0
   -1.0840    1.3740    2.7300 H   0  0  0  0  0  0  0  0  0  0  0  0
   -3.4140    0.8490    2.1370 H   0  0  0  0  0  0  0  0  0  0  0  0
    1.2290    1.7830    1.7350 H   0  0  0  0  0  0  0  0  0  0  0  0
    4.6740    0.9340   -2.3630 H   0  0  0  0  0  0  0  0  0  0  0  0
  8 21  2  0  0  0  0
  7  8  1  0  0  0  0
  8 19  1  0  0  0  0
  6  7  1  0  0  0  0
  9 19  1  0  0  0  0
  5 20  2  0  0  0  0
  5  6  1  0  0  0  0
  6 14  1  0  0  0  0
  9 14  2  0  0  0  0
  9 10  1  0  0  0  0
  5 18  1  0  0  0  0
 13 14  1  0  0  0  0
 10 11  2  0  0  0  0
  4 18  1  0  0  0  0
 12 13  2  0  0  0  0
 11 12  1  0  0  0  0
  3  4  2  0  0  0  0
  4 15  1  0  0  0  0
  2  3  1  0  0  0  0
 15 16  2  0  0  0  0
  1  2  2  0  0  0  0
  1 16  1  0  0  0  0
  1 17  1  0  0  0  0
  2 22  1  0  0  0  0
  3 23  1  0  0  0  0
  6 24  1  0  0  0  0
  7 25  1  0  0  0  0
  7 26  1  0  0  0  0
 10 27  1  0  0  0  0
 11 28  1  0  0  0  0
 12 29  1  0  0  0  0
 13 30  1  0  0  0  0
 15 31  1  0  0  0  0
 16 32  1  0  0  0  0
 18 33  1  0  0  0  0
 19 34  1  0  0  0  0
M  END
> <OPENEYE_ISO_SMILES>
c1ccc2c(c1)[C@@H](CC(=O)N2)C(=O)Nc3ccc(cc3)I

> <OPENEYE_INCHI>
InChI=1S/C16H13IN2O2/c17-10-5-7-11(8-6-10)18-16(21)13-9-15(20)19-14-4-2-1-3-12(13)14/h1-8,13H,9H2,(H,18,21)(H,19,20)/t13-/m1/s1

> <OPENEYE_INCHIKEY>
DDBKMCQLKKZOJH-CYBMUJFWSA-N

> <FORMULA>
C16H13IN2O2

$$$$
