7QBB_ligand1
 OpenBabel04052409413D

 43 47  0  0  1  0  0  0  0  0999 V2000
   10.9933   -0.8291   23.4274 C   0  0  2  0  0  0  0  0  0  0  0  0
    6.8175   -0.2999   18.8495 C   0  0  0  0  0  0  0  0  0  0  0  0
   11.9348   -1.5318   24.3842 C   0  0  0  0  0  0  0  0  0  0  0  0
   13.2849   -1.1398   24.4807 C   0  0  0  0  0  0  0  0  0  0  0  0
    9.5963   -0.3743   23.8981 C   0  0  0  0  0  0  0  0  0  0  0  0
   14.1528   -1.8250   25.3518 C   0  0  0  0  0  0  0  0  0  0  0  0
   13.6796   -2.9021   26.1224 C   0  0  0  0  0  0  0  0  0  0  0  0
   12.3331   -3.2971   26.0264 C   0  0  0  0  0  0  0  0  0  0  0  0
   11.4633   -2.6139   25.1590 C   0  0  0  0  0  0  0  0  0  0  0  0
    8.4905   -0.0722   21.5482 C   0  0  0  0  0  0  0  0  0  0  0  0
    6.4885    0.0099   20.1842 C   0  0  0  0  0  0  0  0  0  0  0  0
    7.8912   -1.8829   22.8080 N   0  0  0  0  0  0  0  0  0  0  0  0
    7.2745   -0.5228   21.2237 N   0  0  0  0  0  0  0  0  0  0  0  0
   10.3400   -1.6854   22.3328 C   0  0  0  0  0  0  0  0  0  0  0  0
    6.0491    0.0517   17.8048 N   0  0  0  0  0  0  0  0  0  0  0  0
    5.8337   -2.1985   21.8671 O   0  0  0  0  0  0  0  0  0  0  0  0
    6.9027   -1.5919   21.9540 C   0  0  0  0  0  0  0  0  0  0  0  0
    9.0154   -0.9911   22.6244 C   0  0  2  0  0  0  0  0  0  0  0  0
    9.0828    0.9071   21.1006 O   0  0  0  0  0  0  0  0  0  0  0  0
    4.9233    0.7392   18.0647 C   0  0  0  0  0  0  0  0  0  0  0  0
    4.5290    1.1598   19.3547 C   0  0  0  0  0  0  0  0  0  0  0  0
    3.3581    1.9151   19.5749 C   0  0  0  0  0  0  0  0  0  0  0  0
    3.0037    2.3268   20.8701 C   0  0  0  0  0  0  0  0  0  0  0  0
    3.8140    1.9673   21.9610 C   0  0  0  0  0  0  0  0  0  0  0  0
    4.9728    1.1961   21.7528 C   0  0  0  0  0  0  0  0  0  0  0  0
    5.3395    0.7904   20.4485 C   0  0  0  0  0  0  0  0  0  0  0  0
   11.5058    0.0171   22.9643 H   0  0  0  0  0  0  0  0  0  0  0  0
    7.6987   -0.8806   18.6160 H   0  0  0  0  0  0  0  0  0  0  0  0
   13.6637   -0.3193   23.8883 H   0  0  0  0  0  0  0  0  0  0  0  0
    9.4893    0.7078   23.9784 H   0  0  0  0  0  0  0  0  0  0  0  0
    9.2481   -0.8738   24.8038 H   0  0  0  0  0  0  0  0  0  0  0  0
   15.1852   -1.5304   25.4358 H   0  0  0  0  0  0  0  0  0  0  0  0
   14.3492   -3.4231   26.7903 H   0  0  0  0  0  0  0  0  0  0  0  0
   11.9656   -4.1236   26.6155 H   0  0  0  0  0  0  0  0  0  0  0  0
   10.4336   -2.9324   25.0869 H   0  0  0  0  0  0  0  0  0  0  0  0
    7.8810   -2.6448   23.4701 H   0  0  0  0  0  0  0  0  0  0  0  0
   10.3090   -2.7447   22.5756 H   0  0  0  0  0  0  0  0  0  0  0  0
   10.7581   -1.5141   21.3427 H   0  0  0  0  0  0  0  0  0  0  0  0
    4.3078    0.9257   17.2035 H   0  0  0  0  0  0  0  0  0  0  0  0
    2.7289    2.2167   18.7564 H   0  0  0  0  0  0  0  0  0  0  0  0
    2.1137    2.9192   21.0269 H   0  0  0  0  0  0  0  0  0  0  0  0
    3.5465    2.2842   22.9584 H   0  0  0  0  0  0  0  0  0  0  0  0
    5.5803    0.9326   22.6055 H   0  0  0  0  0  0  0  0  0  0  0  0
  1  3  1  0  0  0  0
  1  5  1  0  0  0  0
  1 14  1  0  0  0  0
  1 27  1  6  0  0  0
  2 11  2  0  0  0  0
  2 15  1  0  0  0  0
  2 28  1  0  0  0  0
  3  4  2  0  0  0  0
  3  9  1  0  0  0  0
  4  6  1  0  0  0  0
  4 29  1  0  0  0  0
  5 18  1  0  0  0  0
  5 30  1  0  0  0  0
  5 31  1  0  0  0  0
  6  7  2  0  0  0  0
  6 32  1  0  0  0  0
  7  8  1  0  0  0  0
  7 33  1  0  0  0  0
  8  9  2  0  0  0  0
  8 34  1  0  0  0  0
  9 35  1  0  0  0  0
 10 13  1  0  0  0  0
 10 19  2  0  0  0  0
 11 13  1  0  0  0  0
 11 26  1  0  0  0  0
 12 17  1  0  0  0  0
 12 18  1  0  0  0  0
 12 36  1  0  0  0  0
 13 17  1  0  0  0  0
 14 18  1  0  0  0  0
 14 37  1  0  0  0  0
 14 38  1  0  0  0  0
 15 20  2  0  0  0  0
 16 17  2  0  0  0  0
 18 10  1  6  0  0  0
 20 21  1  0  0  0  0
 20 39  1  0  0  0  0
 21 22  2  0  0  0  0
 21 26  1  0  0  0  0
 22 23  1  0  0  0  0
 22 40  1  0  0  0  0
 23 24  2  0  0  0  0
 23 41  1  0  0  0  0
 24 25  1  0  0  0  0
 24 42  1  0  0  0  0
 25 26  2  0  0  0  0
 25 43  1  0  0  0  0
M  END
$$$$
