7RLS_ligand1
 OpenBabel04052409413D

 37 39  0  0  0  0  0  0  0  0999 V2000
   11.4327   -1.5381   23.1533 C   0  0  0  0  0  0  0  0  0  0  0  0
    4.5359    1.5067   20.1100 C   0  0  0  0  0  0  0  0  0  0  0  0
    5.7571   -1.8703   20.8161 C   0  0  0  0  0  0  0  0  0  0  0  0
    5.4795   -0.6320   20.1160 C   0  0  0  0  0  0  0  0  0  0  0  0
    8.7443   -0.8432   22.3762 C   0  0  0  0  0  0  0  0  0  0  0  0
    7.2433   -0.5232   22.3653 C   0  0  0  0  0  0  0  0  0  0  0  0
    8.1955   -3.1890   22.9582 C   0  0  0  0  0  0  0  0  0  0  0  0
    6.6999   -2.8241   22.9009 C   0  0  0  0  0  0  0  0  0  0  0  0
   10.3120   -2.1907   23.7191 C   0  0  0  0  0  0  0  0  0  0  0  0
   10.5166   -3.0316   24.8341 C   0  0  0  0  0  0  0  0  0  0  0  0
   11.8021   -3.2282   25.3662 C   0  0  0  0  0  0  0  0  0  0  0  0
   12.9136   -2.5717   24.7987 C   0  0  0  0  0  0  0  0  0  0  0  0
    5.3089   -2.9542   20.4417 O   0  0  0  0  0  0  0  0  0  0  0  0
   12.7212   -1.7227   23.6880 C   0  0  0  0  0  0  0  0  0  0  0  0
    5.9585    0.8753   18.2546 C   0  0  0  0  0  0  0  0  0  0  0  0
    6.1320   -0.4143   18.9090 C   0  0  0  0  0  3  0  0  0  0  0  0
    4.6374    0.2767   20.6678 N   0  0  0  0  0  0  0  0  0  0  0  0
    5.2191    1.7538   18.9672 N   0  0  0  0  0  0  0  0  0  0  0  0
    6.4869   -1.7226   21.9532 N   0  0  0  0  0  0  0  0  0  0  0  0
    9.0097   -2.0010   23.2204 N   0  0  0  0  0  0  0  0  0  0  0  0
    3.8444    2.4025   20.5851 O   0  0  0  0  0  0  0  0  0  0  0  0
    6.4384    1.1823   17.1690 O   0  0  0  0  0  0  0  0  0  0  0  0
   14.0514   -0.8944   22.9649 Cl  0  0  0  0  0  0  0  0  0  0  0  0
   14.4916   -2.8074   25.4640 Cl  0  0  0  0  0  0  0  0  0  0  0  0
   11.9873   -4.2854   26.7165 Cl  0  0  0  0  0  0  0  0  0  0  0  0
   11.3253   -0.8881   22.2982 H   0  0  0  0  0  0  0  0  0  0  0  0
    9.2862    0.0168   22.7660 H   0  0  0  0  0  0  0  0  0  0  0  0
    9.1045   -1.0332   21.3640 H   0  0  0  0  0  0  0  0  0  0  0  0
    7.0943    0.3545   21.7395 H   0  0  0  0  0  0  0  0  0  0  0  0
    6.9170   -0.2282   23.3635 H   0  0  0  0  0  0  0  0  0  0  0  0
    8.5087   -3.6218   22.0093 H   0  0  0  0  0  0  0  0  0  0  0  0
    8.3413   -3.9602   23.7120 H   0  0  0  0  0  0  0  0  0  0  0  0
    6.3575   -2.5052   23.8871 H   0  0  0  0  0  0  0  0  0  0  0  0
    6.1129   -3.7117   22.6592 H   0  0  0  0  0  0  0  0  0  0  0  0
    9.6829   -3.5281   25.3089 H   0  0  0  0  0  0  0  0  0  0  0  0
    6.8031   -1.1458   18.4839 H   0  0  0  0  0  0  0  0  0  0  0  0
    5.1238    2.6793   18.5722 H   0  0  0  0  0  0  0  0  0  0  0  0
  1  9  2  0  0  0  0
  1 14  1  0  0  0  0
  1 26  1  0  0  0  0
  2 17  1  0  0  0  0
  2 18  1  0  0  0  0
  2 21  2  0  0  0  0
  3  4  1  0  0  0  0
  3 13  2  0  0  0  0
  3 19  1  0  0  0  0
  4 16  1  0  0  0  0
  4 17  2  0  0  0  0
  5  6  1  0  0  0  0
  5 20  1  0  0  0  0
  5 27  1  0  0  0  0
  5 28  1  0  0  0  0
  6 19  1  0  0  0  0
  6 29  1  0  0  0  0
  6 30  1  0  0  0  0
  7  8  1  0  0  0  0
  7 20  1  0  0  0  0
  7 31  1  0  0  0  0
  7 32  1  0  0  0  0
  8 19  1  0  0  0  0
  8 33  1  0  0  0  0
  8 34  1  0  0  0  0
  9 10  1  0  0  0  0
  9 20  1  0  0  0  0
 10 11  2  0  0  0  0
 10 35  1  0  0  0  0
 11 12  1  0  0  0  0
 11 25  1  0  0  0  0
 12 14  2  0  0  0  0
 12 24  1  0  0  0  0
 14 23  1  0  0  0  0
 15 16  1  0  0  0  0
 15 18  1  0  0  0  0
 15 22  2  0  0  0  0
 16 36  1  0  0  0  0
 18 37  1  0  0  0  0
M  END
$$$$
