7RM2_ligand
 OpenBabel04052409413D

 40 42  0  0  0  0  0  0  0  0999 V2000
    4.7260   -0.1619   20.1550 C   0  0  0  0  0  0  0  0  0  0  0  0
    9.5907   -1.9871   23.6650 C   0  0  0  0  0  0  0  0  0  0  0  0
   10.7277   -1.4613   23.0137 C   0  0  0  0  0  0  0  0  0  0  0  0
   12.0159   -1.6331   23.5491 C   0  0  0  0  0  0  0  0  0  0  0  0
   12.2056   -2.3660   24.7435 C   0  0  0  0  0  0  0  0  0  0  0  0
   11.0724   -2.9248   25.3867 C   0  0  0  0  0  0  0  0  0  0  0  0
    9.7853   -2.7300   24.8494 C   0  0  0  0  0  0  0  0  0  0  0  0
    3.5322    1.8624   20.0309 C   0  0  0  0  0  0  0  0  0  0  0  0
    5.0443   -1.4207   20.8167 C   0  0  0  0  0  0  0  0  0  0  0  0
    4.8994    1.2257   18.1435 C   0  0  0  0  0  0  0  0  0  0  0  0
    5.2403    0.0133   18.8779 C   0  0  0  0  0  3  0  0  0  0  0  0
   13.6061   -2.5279   25.3236 C   0  0  0  0  0  0  0  0  0  0  0  0
    5.9259   -2.4384   22.9049 C   0  0  0  0  0  0  0  0  0  0  0  0
    7.4019   -2.8862   22.9682 C   0  0  0  0  0  0  0  0  0  0  0  0
    8.0642   -0.5795   22.3300 C   0  0  0  0  0  0  0  0  0  0  0  0
    6.5849   -0.1646   22.3698 C   0  0  0  0  0  0  0  0  0  0  0  0
    3.9018    0.7542   20.7316 N   0  0  0  0  0  0  0  0  0  0  0  0
    4.0503    2.0522   18.7956 N   0  0  0  0  0  0  0  0  0  0  0  0
    5.7562   -1.3139   21.9700 N   0  0  0  0  0  0  0  0  0  0  0  0
    8.2886   -1.7439   23.1838 N   0  0  0  0  0  0  0  0  0  0  0  0
    2.7427    2.7024   20.4546 O   0  0  0  0  0  0  0  0  0  0  0  0
    5.3349    1.4993   17.0311 O   0  0  0  0  0  0  0  0  0  0  0  0
    4.6382   -2.5056   20.3936 O   0  0  0  0  0  0  0  0  0  0  0  0
   11.2214   -3.8424   26.8425 Cl  0  0  0  0  0  0  0  0  0  0  0  0
   13.3417   -0.9004   22.7226 Cl  0  0  0  0  0  0  0  0  0  0  0  0
   10.6231   -0.8993   22.0996 H   0  0  0  0  0  0  0  0  0  0  0  0
    8.9360   -3.1373   25.3785 H   0  0  0  0  0  0  0  0  0  0  0  0
    5.8732   -0.7313   18.4186 H   0  0  0  0  0  0  0  0  0  0  0  0
   13.6837   -3.3601   26.0219 H   0  0  0  0  0  0  0  0  0  0  0  0
   14.3298   -2.7236   24.5330 H   0  0  0  0  0  0  0  0  0  0  0  0
   13.9057   -1.6181   25.8451 H   0  0  0  0  0  0  0  0  0  0  0  0
    5.5997   -2.1131   23.8935 H   0  0  0  0  0  0  0  0  0  0  0  0
    5.2911   -3.2908   22.6577 H   0  0  0  0  0  0  0  0  0  0  0  0
    7.6836   -3.3718   22.0345 H   0  0  0  0  0  0  0  0  0  0  0  0
    7.5188   -3.6325   23.7548 H   0  0  0  0  0  0  0  0  0  0  0  0
    8.6795    0.2536   22.6681 H   0  0  0  0  0  0  0  0  0  0  0  0
    8.3630   -0.8148   21.3077 H   0  0  0  0  0  0  0  0  0  0  0  0
    6.4592    0.7185   21.7453 H   0  0  0  0  0  0  0  0  0  0  0  0
    6.3054    0.1449   23.3774 H   0  0  0  0  0  0  0  0  0  0  0  0
    3.7857    2.9052   18.3167 H   0  0  0  0  0  0  0  0  0  0  0  0
  1  9  1  0  0  0  0
  1 11  1  0  0  0  0
  1 17  2  0  0  0  0
  2  3  2  0  0  0  0
  2  7  1  0  0  0  0
  2 20  1  0  0  0  0
  3  4  1  0  0  0  0
  3 26  1  0  0  0  0
  4  5  2  0  0  0  0
  4 25  1  0  0  0  0
  5  6  1  0  0  0  0
  5 12  1  0  0  0  0
  6  7  2  0  0  0  0
  6 24  1  0  0  0  0
  7 27  1  0  0  0  0
  8 17  1  0  0  0  0
  8 18  1  0  0  0  0
  8 21  2  0  0  0  0
  9 19  1  0  0  0  0
  9 23  2  0  0  0  0
 10 11  1  0  0  0  0
 10 18  1  0  0  0  0
 10 22  2  0  0  0  0
 11 28  1  0  0  0  0
 12 29  1  0  0  0  0
 12 30  1  0  0  0  0
 12 31  1  0  0  0  0
 13 14  1  0  0  0  0
 13 19  1  0  0  0  0
 13 32  1  0  0  0  0
 13 33  1  0  0  0  0
 14 20  1  0  0  0  0
 14 34  1  0  0  0  0
 14 35  1  0  0  0  0
 15 16  1  0  0  0  0
 15 20  1  0  0  0  0
 15 36  1  0  0  0  0
 15 37  1  0  0  0  0
 16 19  1  0  0  0  0
 16 38  1  0  0  0  0
 16 39  1  0  0  0  0
 18 40  1  0  0  0  0
M  END
$$$$
