7RMB_ligand1
 OpenBabel04052409413D

 37 39  0  0  0  0  0  0  0  0999 V2000
    5.3885   -0.6803   20.2254 C   0  0  0  0  0  0  0  0  0  0  0  0
   10.2261   -2.2899   23.7335 C   0  0  0  0  0  0  0  0  0  0  0  0
   11.3375   -1.5731   23.2278 C   0  0  0  0  0  0  0  0  0  0  0  0
   12.6201   -1.7415   23.7836 C   0  0  0  0  0  0  0  0  0  0  0  0
   12.8107   -2.6466   24.8493 C   0  0  0  0  0  0  0  0  0  0  0  0
   11.7191   -3.3844   25.3392 C   0  0  0  0  0  0  0  0  0  0  0  0
   10.4372   -3.1970   24.7975 C   0  0  0  0  0  0  0  0  0  0  0  0
    4.3655    1.4190   20.1315 C   0  0  0  0  0  0  0  0  0  0  0  0
    5.6556   -1.9186   20.9238 C   0  0  0  0  0  0  0  0  0  0  0  0
    5.8832    0.7920   18.3504 C   0  0  0  0  0  0  0  0  0  0  0  0
    6.0668   -0.4764   19.0325 C   0  0  0  0  0  3  0  0  0  0  0  0
    7.1338   -0.5843   22.4879 C   0  0  0  0  0  0  0  0  0  0  0  0
    8.6366   -0.9024   22.4324 C   0  0  0  0  0  0  0  0  0  0  0  0
    8.0959   -3.2714   22.9584 C   0  0  0  0  0  0  0  0  0  0  0  0
    6.6038   -2.8953   22.9869 C   0  0  0  0  0  0  0  0  0  0  0  0
    4.5180    0.2223   20.7449 N   0  0  0  0  0  0  0  0  0  0  0  0
    5.0975    1.6593   19.0237 N   0  0  0  0  0  0  0  0  0  0  0  0
    6.3672   -1.7747   22.0708 N   0  0  0  0  0  0  0  0  0  0  0  0
    8.9287   -2.0963   23.2222 N   0  0  0  0  0  0  0  0  0  0  0  0
    3.5896    2.2923   20.5141 O   0  0  0  0  0  0  0  0  0  0  0  0
    6.3836    1.0860   17.2700 O   0  0  0  0  0  0  0  0  0  0  0  0
    5.2221   -3.0005   20.5304 O   0  0  0  0  0  0  0  0  0  0  0  0
   14.5190   -2.8926   25.6521 Br  0  0  0  0  0  0  0  0  0  0  0  0
   13.9340   -0.8188   23.1533 Cl  0  0  0  0  0  0  0  0  0  0  0  0
   11.2250   -0.8800   22.4075 H   0  0  0  0  0  0  0  0  0  0  0  0
   11.8607   -4.0875   26.1468 H   0  0  0  0  0  0  0  0  0  0  0  0
    9.6174   -3.7476   25.2324 H   0  0  0  0  0  0  0  0  0  0  0  0
    6.7516   -1.2069   18.6291 H   0  0  0  0  0  0  0  0  0  0  0  0
    6.9517    0.3125   21.8983 H   0  0  0  0  0  0  0  0  0  0  0  0
    6.8457   -0.3212   23.5071 H   0  0  0  0  0  0  0  0  0  0  0  0
    9.1870   -0.0473   22.8216 H   0  0  0  0  0  0  0  0  0  0  0  0
    8.9587   -1.0585   21.4020 H   0  0  0  0  0  0  0  0  0  0  0  0
    8.3592   -3.6683   21.9791 H   0  0  0  0  0  0  0  0  0  0  0  0
    8.2684   -4.0747   23.6699 H   0  0  0  0  0  0  0  0  0  0  0  0
    6.3158   -2.5953   23.9954 H   0  0  0  0  0  0  0  0  0  0  0  0
    5.9967   -3.7709   22.7542 H   0  0  0  0  0  0  0  0  0  0  0  0
    4.9750    2.5737   18.6124 H   0  0  0  0  0  0  0  0  0  0  0  0
  1  9  1  0  0  0  0
  1 11  1  0  0  0  0
  1 16  2  0  0  0  0
  2  3  2  0  0  0  0
  2  7  1  0  0  0  0
  2 19  1  0  0  0  0
  3  4  1  0  0  0  0
  3 25  1  0  0  0  0
  4  5  2  0  0  0  0
  4 24  1  0  0  0  0
  5  6  1  0  0  0  0
  5 23  1  0  0  0  0
  6  7  2  0  0  0  0
  6 26  1  0  0  0  0
  7 27  1  0  0  0  0
  8 16  1  0  0  0  0
  8 17  1  0  0  0  0
  8 20  2  0  0  0  0
  9 18  1  0  0  0  0
  9 22  2  0  0  0  0
 10 11  1  0  0  0  0
 10 17  1  0  0  0  0
 10 21  2  0  0  0  0
 11 28  1  0  0  0  0
 12 13  1  0  0  0  0
 12 18  1  0  0  0  0
 12 29  1  0  0  0  0
 12 30  1  0  0  0  0
 13 19  1  0  0  0  0
 13 31  1  0  0  0  0
 13 32  1  0  0  0  0
 14 15  1  0  0  0  0
 14 19  1  0  0  0  0
 14 33  1  0  0  0  0
 14 34  1  0  0  0  0
 15 18  1  0  0  0  0
 15 35  1  0  0  0  0
 15 36  1  0  0  0  0
 17 37  1  0  0  0  0
M  END
$$$$
