7RN4_ligand1
 OpenBabel04052409413D

 39 41  0  0  0  0  0  0  0  0999 V2000
    5.5208   -0.6170   20.1225 C   0  0  0  0  0  0  0  0  0  0  0  0
   10.5858   -2.8787   25.0964 C   0  0  0  0  0  0  0  0  0  0  0  0
   11.9227   -3.1048   25.4618 C   0  0  0  0  0  0  0  0  0  0  0  0
   12.9651   -2.5800   24.6794 C   0  0  0  0  0  0  0  0  0  0  0  0
   12.6675   -1.8444   23.5127 C   0  0  0  0  0  0  0  0  0  0  0  0
   11.3252   -1.6314   23.1383 C   0  0  0  0  0  0  0  0  0  0  0  0
    4.4159    1.5205   20.1037 C   0  0  0  0  0  0  0  0  0  0  0  0
    5.7381   -1.8563   20.8340 C   0  0  0  0  0  0  0  0  0  0  0  0
    6.0342    0.9296   18.3138 C   0  0  0  0  0  0  0  0  0  0  0  0
    6.1996   -0.3610   18.9757 C   0  0  0  0  0  0  0  0  0  0  0  0
    8.8062   -1.8860   23.6242 C   0  0  0  0  0  0  0  0  0  0  0  0
    7.0174   -0.4869   22.5397 C   0  0  0  0  0  0  0  0  0  0  0  0
    8.5298   -0.6995   22.6864 C   0  0  0  0  0  0  0  0  0  0  0  0
    8.0844   -3.1426   23.1072 C   0  0  0  0  0  0  0  0  0  0  0  0
    6.5802   -2.8592   22.9288 C   0  0  0  0  0  0  0  0  0  0  0  0
   10.2745   -2.1360   23.9388 C   0  0  0  0  0  0  0  0  0  0  0  0
    4.6241    0.2737   20.6720 N   0  0  0  0  0  0  0  0  0  0  0  0
    5.1569    1.8026   18.9567 N   0  0  0  0  0  0  0  0  0  0  0  0
    6.3847   -1.7205   22.0212 N   0  0  0  0  0  0  0  0  0  0  0  0
    3.6161    2.3131   20.5916 O   0  0  0  0  0  0  0  0  0  0  0  0
    6.5938    1.2788   17.2801 O   0  0  0  0  0  0  0  0  0  0  0  0
    5.3257   -2.9343   20.4082 O   0  0  0  0  0  0  0  0  0  0  0  0
   13.9298   -1.1840   22.5393 Cl  0  0  0  0  0  0  0  0  0  0  0  0
   14.5925   -2.8543   25.1789 Cl  0  0  0  0  0  0  0  0  0  0  0  0
    9.7938   -3.2736   25.7168 H   0  0  0  0  0  0  0  0  0  0  0  0
   12.1485   -3.6755   26.3498 H   0  0  0  0  0  0  0  0  0  0  0  0
   11.1210   -1.0646   22.2430 H   0  0  0  0  0  0  0  0  0  0  0  0
    6.8893   -1.0805   18.5566 H   0  0  0  0  0  0  0  0  0  0  0  0
    8.3549   -1.6283   24.5847 H   0  0  0  0  0  0  0  0  0  0  0  0
    6.8747    0.4008   21.9277 H   0  0  0  0  0  0  0  0  0  0  0  0
    6.5750   -0.2462   23.5070 H   0  0  0  0  0  0  0  0  0  0  0  0
    8.9677   -0.8662   21.7014 H   0  0  0  0  0  0  0  0  0  0  0  0
    8.9833    0.2025   23.0930 H   0  0  0  0  0  0  0  0  0  0  0  0
    8.2162   -3.9701   23.8038 H   0  0  0  0  0  0  0  0  0  0  0  0
    8.5222   -3.4623   22.1603 H   0  0  0  0  0  0  0  0  0  0  0  0
    6.1299   -2.6185   23.8929 H   0  0  0  0  0  0  0  0  0  0  0  0
    6.0785   -3.7670   22.5917 H   0  0  0  0  0  0  0  0  0  0  0  0
    4.1126    0.0489   21.5182 H   0  0  0  0  0  0  0  0  0  0  0  0
    5.0435    2.7181   18.5371 H   0  0  0  0  0  0  0  0  0  0  0  0
  1  8  1  0  0  0  0
  1 10  2  0  0  0  0
  1 17  1  0  0  0  0
  2  3  2  0  0  0  0
  2 16  1  0  0  0  0
  2 25  1  0  0  0  0
  3  4  1  0  0  0  0
  3 26  1  0  0  0  0
  4  5  2  0  0  0  0
  4 24  1  0  0  0  0
  5  6  1  0  0  0  0
  5 23  1  0  0  0  0
  6 16  2  0  0  0  0
  6 27  1  0  0  0  0
  7 17  1  0  0  0  0
  7 18  1  0  0  0  0
  7 20  2  0  0  0  0
  8 19  1  0  0  0  0
  8 22  2  0  0  0  0
  9 10  1  0  0  0  0
  9 18  1  0  0  0  0
  9 21  2  0  0  0  0
 10 28  1  0  0  0  0
 11 13  1  0  0  0  0
 11 14  1  0  0  0  0
 11 16  1  0  0  0  0
 11 29  1  0  0  0  0
 12 13  1  0  0  0  0
 12 19  1  0  0  0  0
 12 30  1  0  0  0  0
 12 31  1  0  0  0  0
 13 32  1  0  0  0  0
 13 33  1  0  0  0  0
 14 15  1  0  0  0  0
 14 34  1  0  0  0  0
 14 35  1  0  0  0  0
 15 19  1  0  0  0  0
 15 36  1  0  0  0  0
 15 37  1  0  0  0  0
 17 38  1  0  0  0  0
 18 39  1  0  0  0  0
M  END
$$$$
