7RNH_ligand1
 OpenBabel04052409413D

 38 40  0  0  0  0  0  0  0  0999 V2000
    5.6015   -0.6177   20.1511 C   0  0  0  0  0  0  0  0  0  0  0  0
    5.8283   -1.8430   20.8848 C   0  0  0  0  0  0  0  0  0  0  0  0
    7.2067   -0.4807   22.5171 C   0  0  0  0  0  0  0  0  0  0  0  0
    8.7176   -0.7656   22.5571 C   0  0  0  0  0  0  0  0  0  0  0  0
    8.2015   -3.1498   23.0109 C   0  0  0  0  0  0  0  0  0  0  0  0
    6.7042   -2.7988   22.9898 C   0  0  0  0  0  0  0  0  0  0  0  0
   10.3179   -2.1713   23.8122 C   0  0  0  0  0  0  0  0  0  0  0  0
    5.4076   -2.9309   20.4920 O   0  0  0  0  0  0  0  0  0  0  0  0
   11.4202   -1.4155   23.3361 C   0  0  0  0  0  0  0  0  0  0  0  0
   12.7161   -1.6281   23.8480 C   0  0  0  0  0  0  0  0  0  0  0  0
   12.9313   -2.6145   24.8285 C   0  0  0  0  0  0  0  0  0  0  0  0
   11.8518   -3.3834   25.2928 C   0  0  0  0  0  0  0  0  0  0  0  0
   10.5545   -3.1417   24.8107 C   0  0  0  0  0  0  0  0  0  0  0  0
    4.5037    1.5237   20.1172 C   0  0  0  0  0  0  0  0  0  0  0  0
    6.0091    0.8594   18.2600 C   0  0  0  0  0  0  0  0  0  0  0  0
    6.2078   -0.4100   18.9535 C   0  0  0  0  0  0  0  0  0  0  0  0
    4.7490    0.3021   20.7218 N   0  0  0  0  0  0  0  0  0  0  0  0
    5.1736    1.7586   18.9192 N   0  0  0  0  0  0  0  0  0  0  0  0
    6.4851   -1.6852   22.0622 N   0  0  0  0  0  0  0  0  0  0  0  0
    9.0060   -1.9676   23.3344 N   0  0  0  0  0  0  0  0  0  0  0  0
    3.7328    2.3374   20.6177 O   0  0  0  0  0  0  0  0  0  0  0  0
    6.5065    1.1754   17.1849 O   0  0  0  0  0  0  0  0  0  0  0  0
   14.5072   -2.8793   25.4769 Cl  0  0  0  0  0  0  0  0  0  0  0  0
    7.0495    0.4091   21.9107 H   0  0  0  0  0  0  0  0  0  0  0  0
    6.8536   -0.2188   23.5153 H   0  0  0  0  0  0  0  0  0  0  0  0
    9.2197    0.0846   23.0161 H   0  0  0  0  0  0  0  0  0  0  0  0
    9.1117   -0.8795   21.5458 H   0  0  0  0  0  0  0  0  0  0  0  0
    8.5127   -3.5237   22.0357 H   0  0  0  0  0  0  0  0  0  0  0  0
    8.3556   -3.9642   23.7142 H   0  0  0  0  0  0  0  0  0  0  0  0
    6.3750   -2.5028   23.9867 H   0  0  0  0  0  0  0  0  0  0  0  0
    6.1195   -3.6844   22.7381 H   0  0  0  0  0  0  0  0  0  0  0  0
   11.2965   -0.6632   22.5714 H   0  0  0  0  0  0  0  0  0  0  0  0
   13.5431   -1.0373   23.4843 H   0  0  0  0  0  0  0  0  0  0  0  0
   12.0096   -4.1436   26.0438 H   0  0  0  0  0  0  0  0  0  0  0  0
    9.7427   -3.7063   25.2394 H   0  0  0  0  0  0  0  0  0  0  0  0
    6.8592   -1.1536   18.5173 H   0  0  0  0  0  0  0  0  0  0  0  0
    4.2830    0.1104   21.6010 H   0  0  0  0  0  0  0  0  0  0  0  0
    5.0405    2.6589   18.4737 H   0  0  0  0  0  0  0  0  0  0  0  0
  1  2  1  0  0  0  0
  1 16  2  0  0  0  0
  1 17  1  0  0  0  0
  2  8  2  0  0  0  0
  2 19  1  0  0  0  0
  3  4  1  0  0  0  0
  3 19  1  0  0  0  0
  3 24  1  0  0  0  0
  3 25  1  0  0  0  0
  4 20  1  0  0  0  0
  4 26  1  0  0  0  0
  4 27  1  0  0  0  0
  5  6  1  0  0  0  0
  5 20  1  0  0  0  0
  5 28  1  0  0  0  0
  5 29  1  0  0  0  0
  6 19  1  0  0  0  0
  6 30  1  0  0  0  0
  6 31  1  0  0  0  0
  7  9  2  0  0  0  0
  7 13  1  0  0  0  0
  7 20  1  0  0  0  0
  9 10  1  0  0  0  0
  9 32  1  0  0  0  0
 10 11  2  0  0  0  0
 10 33  1  0  0  0  0
 11 12  1  0  0  0  0
 11 23  1  0  0  0  0
 12 13  2  0  0  0  0
 12 34  1  0  0  0  0
 13 35  1  0  0  0  0
 14 17  1  0  0  0  0
 14 18  1  0  0  0  0
 14 21  2  0  0  0  0
 15 16  1  0  0  0  0
 15 18  1  0  0  0  0
 15 22  2  0  0  0  0
 16 36  1  0  0  0  0
 17 37  1  0  0  0  0
 18 38  1  0  0  0  0
M  END
$$$$
