7RNK_ligand1
 OpenBabel04052409413D

 41 43  0  0  0  0  0  0  0  0999 V2000
    5.8099   -1.8501   20.8694 C   0  0  0  0  0  0  0  0  0  0  0  0
    8.7848   -0.8437   22.5116 C   0  0  0  0  0  0  0  0  0  0  0  0
    7.2794   -0.5468   22.4684 C   0  0  0  0  0  0  0  0  0  0  0  0
    9.0452   -2.0276   23.3242 N   0  0  0  0  0  0  0  0  0  0  0  0
    8.2671   -3.2158   22.9761 C   0  0  0  0  0  0  0  0  0  0  0  0
    5.4718   -0.5846   20.2507 C   0  0  0  0  0  0  0  0  0  0  0  0
   10.3423   -2.2272   23.8331 C   0  0  0  0  0  0  0  0  0  0  0  0
   10.5453   -3.1113   24.9144 C   0  0  0  0  0  0  0  0  0  0  0  0
   11.8259   -3.2968   25.4609 C   0  0  0  0  0  0  0  0  0  0  0  0
   12.9330   -2.5851   24.9515 C   0  0  0  0  0  0  0  0  0  0  0  0
   12.7383   -1.7000   23.8669 C   0  0  0  0  0  0  0  0  0  0  0  0
   11.4581   -1.5316   23.3113 C   0  0  0  0  0  0  0  0  0  0  0  0
    4.4197    1.5005   20.3691 C   0  0  0  0  0  0  0  0  0  0  0  0
    5.7900    1.0147   18.4323 C   0  0  0  0  0  0  0  0  0  0  0  0
    6.0481   -0.2940   19.0217 C   0  0  0  0  0  3  0  0  0  0  0  0
   14.3115   -2.7372   25.5773 C   0  0  0  0  0  0  0  0  0  0  0  0
    6.7670   -2.8790   22.9120 C   0  0  0  0  0  0  0  0  0  0  0  0
    4.6260    0.2655   20.8858 N   0  0  0  0  0  0  0  0  0  0  0  0
    5.0462    1.8274   19.2126 N   0  0  0  0  0  0  0  0  0  0  0  0
    6.5475   -1.7433   22.0069 N   0  0  0  0  0  0  0  0  0  0  0  0
    3.6795    2.3293   20.8893 O   0  0  0  0  0  0  0  0  0  0  0  0
    6.1972    1.3855   17.3372 O   0  0  0  0  0  0  0  0  0  0  0  0
   14.4386   -3.8070   26.4902 O   0  0  0  0  0  0  0  0  0  0  0  0
    5.3930   -2.9251   20.4396 O   0  0  0  0  0  0  0  0  0  0  0  0
   14.0438   -0.7846   23.2049 Cl  0  0  0  0  0  0  0  0  0  0  0  0
    9.3014    0.0174   22.9338 H   0  0  0  0  0  0  0  0  0  0  0  0
    9.1720   -1.0006   21.5036 H   0  0  0  0  0  0  0  0  0  0  0  0
    7.1368    0.3420   21.8564 H   0  0  0  0  0  0  0  0  0  0  0  0
    6.9219   -0.2799   23.4640 H   0  0  0  0  0  0  0  0  0  0  0  0
    8.4220   -4.0302   23.6828 H   0  0  0  0  0  0  0  0  0  0  0  0
    8.6055   -3.5766   22.0066 H   0  0  0  0  0  0  0  0  0  0  0  0
    9.7156   -3.6449   25.3538 H   0  0  0  0  0  0  0  0  0  0  0  0
   11.9406   -3.9809   26.2888 H   0  0  0  0  0  0  0  0  0  0  0  0
   11.3524   -0.8525   22.4795 H   0  0  0  0  0  0  0  0  0  0  0  0
    6.7122   -0.9878   18.5267 H   0  0  0  0  0  0  0  0  0  0  0  0
   14.5428   -1.8142   26.1037 H   0  0  0  0  0  0  0  0  0  0  0  0
   15.0536   -2.8749   24.7912 H   0  0  0  0  0  0  0  0  0  0  0  0
    6.4065   -2.6071   23.9049 H   0  0  0  0  0  0  0  0  0  0  0  0
    6.2026   -3.7657   22.6261 H   0  0  0  0  0  0  0  0  0  0  0  0
    4.8898    2.7680   18.8715 H   0  0  0  0  0  0  0  0  0  0  0  0
   15.3240   -3.8088   26.8209 H   0  0  0  0  0  0  0  0  0  0  0  0
  1  6  1  0  0  0  0
  1 20  1  0  0  0  0
  1 24  2  0  0  0  0
  2  3  1  0  0  0  0
  2  4  1  0  0  0  0
  2 26  1  0  0  0  0
  2 27  1  0  0  0  0
  3 20  1  0  0  0  0
  3 28  1  0  0  0  0
  3 29  1  0  0  0  0
  4  5  1  0  0  0  0
  4  7  1  0  0  0  0
  5 17  1  0  0  0  0
  5 30  1  0  0  0  0
  5 31  1  0  0  0  0
  6 15  1  0  0  0  0
  6 18  2  0  0  0  0
  7  8  2  0  0  0  0
  7 12  1  0  0  0  0
  8  9  1  0  0  0  0
  8 32  1  0  0  0  0
  9 10  2  0  0  0  0
  9 33  1  0  0  0  0
 10 11  1  0  0  0  0
 10 16  1  0  0  0  0
 11 12  2  0  0  0  0
 11 25  1  0  0  0  0
 12 34  1  0  0  0  0
 13 18  1  0  0  0  0
 13 19  1  0  0  0  0
 13 21  2  0  0  0  0
 14 15  1  0  0  0  0
 14 19  1  0  0  0  0
 14 22  2  0  0  0  0
 15 35  1  0  0  0  0
 16 23  1  0  0  0  0
 16 36  1  0  0  0  0
 16 37  1  0  0  0  0
 17 20  1  0  0  0  0
 17 38  1  0  0  0  0
 17 39  1  0  0  0  0
 19 40  1  0  0  0  0
 23 41  1  0  0  0  0
M  END
$$$$
