7TVX_ligand1
 OpenBabel04052409413D

 67 71  0  0  0  0  0  0  0  0999 V2000
    7.7783   -8.7257   32.8498 C   0  0  0  0  0  0  0  0  0  0  0  0
    6.6565   -9.7870   32.7948 C   0  0  0  0  0  0  0  0  0  0  0  0
    7.0802  -11.0140   32.1121 N   0  0  0  0  0  0  0  0  0  0  0  0
    8.0048  -11.8146   32.9081 C   0  0  0  0  0  0  0  0  0  0  0  0
    7.5932  -10.7083   30.7745 C   0  0  0  0  0  0  0  0  0  0  0  0
    8.7131   -9.6452   30.8089 C   0  0  0  0  0  0  0  0  0  0  0  0
    8.2696   -8.4002   31.4897 N   0  3  0  0  0  0  0  0  0  0  0  0
    7.3410   -7.5506   30.6978 C   0  0  0  0  0  0  0  0  0  0  0  0
    8.0890   -6.5514   29.8309 C   0  0  0  0  0  0  0  0  0  0  0  0
    8.5947   -6.9410   28.5764 C   0  0  0  0  0  0  0  0  0  0  0  0
    9.2619   -6.0204   27.7518 C   0  0  0  0  0  0  0  0  0  0  0  0
    8.2488   -5.2151   30.2523 C   0  0  0  0  0  0  0  0  0  0  0  0
    8.8994   -4.2825   29.4193 C   0  0  0  0  0  0  0  0  0  0  0  0
    9.4128   -4.6792   28.1651 C   0  0  0  0  0  0  0  0  0  0  0  0
   10.0228   -3.6682   27.2437 C   0  0  0  0  0  0  0  0  0  0  0  0
    9.6100   -2.5079   27.2247 O   0  0  0  0  0  0  0  0  0  0  0  0
   11.0595   -4.1063   26.5086 N   0  0  0  0  0  0  0  0  0  0  0  0
   11.6640   -3.3612   25.4771 C   0  0  0  0  0  0  0  0  0  0  0  0
   10.9077   -2.9504   24.3596 C   0  0  0  0  0  0  0  0  0  0  0  0
   13.0334   -3.0540   25.5493 C   0  0  0  0  0  0  0  0  0  0  0  0
   13.6266   -2.2909   24.5302 C   0  0  0  0  0  0  0  0  0  0  0  0
   12.8661   -1.8450   23.4275 C   0  0  0  0  0  0  0  0  0  0  0  0
   13.5319   -0.9701   22.3854 C   0  0  0  0  0  0  0  0  0  0  0  0
   11.4955   -2.1823   23.3316 C   0  0  0  0  0  0  0  0  0  0  0  0
   10.7413   -1.7846   22.2148 N   0  0  0  0  0  0  0  0  0  0  0  0
    9.4444   -1.2763   22.2059 C   0  0  0  0  0  0  0  0  0  0  0  0
    8.7749   -0.9926   21.0871 N   0  0  0  0  0  0  0  0  0  0  0  0
    8.5649   -0.8316   23.6643 S   0  0  0  0  0  0  0  0  0  0  0  0
    7.2526   -0.2893   22.6625 C   0  0  0  0  0  0  0  0  0  0  0  0
    7.5182   -0.4144   21.3185 C   0  0  0  0  0  0  0  0  0  0  0  0
    6.6628    0.0035   20.2019 C   0  0  0  0  0  0  0  0  0  0  0  0
    5.4030    0.5858   20.4560 C   0  0  0  0  0  0  0  0  0  0  0  0
    4.6043    1.0040   19.3810 C   0  0  0  0  0  0  0  0  0  0  0  0
    5.0991    0.8459   18.0743 C   0  0  0  0  0  0  0  0  0  0  0  0
    6.2945    0.2835   17.8077 N   0  0  0  0  0  0  0  0  0  0  0  0
    7.0517   -0.1299   18.8480 C   0  0  0  0  0  0  0  0  0  0  0  0
    8.6135   -9.0827   33.4536 H   0  0  0  0  0  0  0  0  0  0  0  0
    7.4210   -7.8243   33.3476 H   0  0  0  0  0  0  0  0  0  0  0  0
    5.7951   -9.3713   32.2705 H   0  0  0  0  0  0  0  0  0  0  0  0
    6.3105  -10.0275   33.8004 H   0  0  0  0  0  0  0  0  0  0  0  0
    8.2385  -12.7460   32.3908 H   0  0  0  0  0  0  0  0  0  0  0  0
    8.9422  -11.2969   33.1102 H   0  0  0  0  0  0  0  0  0  0  0  0
    7.5514  -12.0754   33.8642 H   0  0  0  0  0  0  0  0  0  0  0  0
    6.7683  -10.3615   30.1532 H   0  0  0  0  0  0  0  0  0  0  0  0
    7.9583  -11.6226   30.3054 H   0  0  0  0  0  0  0  0  0  0  0  0
    9.0591   -9.4237   29.8035 H   0  0  0  0  0  0  0  0  0  0  0  0
    9.5786  -10.0499   31.3287 H   0  0  0  0  0  0  0  0  0  0  0  0
    9.0925   -7.8290   31.6137 H   0  0  0  0  0  0  0  0  0  0  0  0
    6.6897   -6.9855   31.3658 H   0  0  0  0  0  0  0  0  0  0  0  0
    6.6770   -8.1529   30.0779 H   0  0  0  0  0  0  0  0  0  0  0  0
    8.4688   -7.9488   28.2270 H   0  0  0  0  0  0  0  0  0  0  0  0
    9.6256   -6.3506   26.7889 H   0  0  0  0  0  0  0  0  0  0  0  0
    7.8540   -4.8880   31.2020 H   0  0  0  0  0  0  0  0  0  0  0  0
    8.9879   -3.2549   29.7442 H   0  0  0  0  0  0  0  0  0  0  0  0
   11.4337   -5.0231   26.7047 H   0  0  0  0  0  0  0  0  0  0  0  0
    9.8688   -3.2359   24.2956 H   0  0  0  0  0  0  0  0  0  0  0  0
   13.6255   -3.3778   26.3927 H   0  0  0  0  0  0  0  0  0  0  0  0
   14.6698   -2.0333   24.6091 H   0  0  0  0  0  0  0  0  0  0  0  0
   12.9361   -0.0748   22.2173 H   0  0  0  0  0  0  0  0  0  0  0  0
   14.5120   -0.6364   22.7205 H   0  0  0  0  0  0  0  0  0  0  0  0
   13.6486   -1.5108   21.4454 H   0  0  0  0  0  0  0  0  0  0  0  0
   11.2390   -1.7052   21.3393 H   0  0  0  0  0  0  0  0  0  0  0  0
    6.3722    0.1195   23.1362 H   0  0  0  0  0  0  0  0  0  0  0  0
    5.0392    0.7234   21.4623 H   0  0  0  0  0  0  0  0  0  0  0  0
    3.6395    1.4406   19.5778 H   0  0  0  0  0  0  0  0  0  0  0  0
    4.5170    1.1626   17.2211 H   0  0  0  0  0  0  0  0  0  0  0  0
    7.9951   -0.5791   18.5781 H   0  0  0  0  0  0  0  0  0  0  0  0
  1  2  1  0  0  0  0
  1  7  1  0  0  0  0
  1 37  1  0  0  0  0
  1 38  1  0  0  0  0
  2  3  1  0  0  0  0
  2 39  1  0  0  0  0
  2 40  1  0  0  0  0
  3  4  1  0  0  0  0
  3  5  1  0  0  0  0
  4 41  1  0  0  0  0
  4 42  1  0  0  0  0
  4 43  1  0  0  0  0
  5  6  1  0  0  0  0
  5 44  1  0  0  0  0
  5 45  1  0  0  0  0
  6  7  1  0  0  0  0
  6 46  1  0  0  0  0
  6 47  1  0  0  0  0
  7  8  1  0  0  0  0
  7 48  1  0  0  0  0
  8  9  1  0  0  0  0
  8 49  1  0  0  0  0
  8 50  1  0  0  0  0
  9 10  2  0  0  0  0
  9 12  1  0  0  0  0
 10 11  1  0  0  0  0
 10 51  1  0  0  0  0
 11 14  2  0  0  0  0
 11 52  1  0  0  0  0
 12 13  2  0  0  0  0
 12 53  1  0  0  0  0
 13 14  1  0  0  0  0
 13 54  1  0  0  0  0
 14 15  1  0  0  0  0
 15 16  2  0  0  0  0
 15 17  1  0  0  0  0
 17 18  1  0  0  0  0
 17 55  1  0  0  0  0
 18 19  2  0  0  0  0
 18 20  1  0  0  0  0
 19 24  1  0  0  0  0
 19 56  1  0  0  0  0
 20 21  2  0  0  0  0
 20 57  1  0  0  0  0
 21 22  1  0  0  0  0
 21 58  1  0  0  0  0
 22 23  1  0  0  0  0
 22 24  2  0  0  0  0
 23 59  1  0  0  0  0
 23 60  1  0  0  0  0
 23 61  1  0  0  0  0
 24 25  1  0  0  0  0
 25 26  1  0  0  0  0
 25 62  1  0  0  0  0
 26 27  2  0  0  0  0
 26 28  1  0  0  0  0
 27 30  1  0  0  0  0
 28 29  1  0  0  0  0
 29 30  2  0  0  0  0
 29 63  1  0  0  0  0
 30 31  1  0  0  0  0
 31 32  2  0  0  0  0
 31 36  1  0  0  0  0
 32 33  1  0  0  0  0
 32 64  1  0  0  0  0
 33 34  2  0  0  0  0
 33 65  1  0  0  0  0
 34 35  1  0  0  0  0
 34 66  1  0  0  0  0
 35 36  2  0  0  0  0
 36 67  1  0  0  0  0
M  CHG  1   7   1
M  END
$$$$
