7VLQ_ligand1
 OpenBabel04052409413D

 72 74  0  0  1  0  0  0  0  0999 V2000
    5.7813    1.2735   18.2243 C   0  0  0  0  0  0  0  0  0  0  0  0
    7.4498   -3.2021   19.9521 C   0  0  0  0  0  0  0  0  0  0  0  0
    9.2051   -1.2114   21.8458 C   0  0  0  0  0  0  0  0  0  0  0  0
   10.0786    1.7632   22.2430 C   0  0  0  0  0  0  0  0  0  0  0  0
   12.0645    4.3140   22.5911 C   0  0  0  0  0  0  0  0  0  0  0  0
    5.5192    0.7833   20.5339 C   0  0  0  0  0  0  0  0  0  0  0  0
    4.6297    1.9608   20.1169 C   0  0  0  0  0  0  0  0  0  0  0  0
   11.2695    0.5090   24.0501 C   0  0  0  0  0  0  0  0  0  0  0  0
    6.5023    0.5699   19.3694 C   0  0  1  0  0  0  0  0  0  0  0  0
   10.6268   -0.6547   22.0009 C   0  0  2  0  0  0  0  0  0  0  0  0
   11.8445   -0.8972   24.1078 C   0  0  1  0  0  0  0  0  0  0  0  0
   11.4840   -1.6091   22.8493 C   0  0  2  0  0  0  0  0  0  0  0  0
   12.9445   -1.3581   23.1691 C   0  0  0  0  0  0  0  0  0  0  0  0
   13.8365   -2.5025   23.6135 C   0  0  0  0  0  0  0  0  0  0  0  0
   13.7445   -0.3696   22.3345 C   0  0  0  0  0  0  0  0  0  0  0  0
    8.5417    4.6703   24.3917 C   0  0  0  0  0  0  0  0  0  0  0  0
    7.7526    2.3271   24.1289 C   0  0  0  0  0  0  0  0  0  0  0  0
    7.7146    3.8772   22.1622 C   0  0  0  0  0  0  0  0  0  0  0  0
    6.8205   -0.9070   19.0625 C   0  0  0  0  0  0  0  0  0  0  0  0
    7.3712   -1.7063   20.2614 C   0  0  2  0  0  0  0  0  0  0  0  0
    9.9999    3.0284   23.1352 C   0  0  2  0  0  0  0  0  0  0  0  0
   12.6819    5.4416   21.7588 C   0  0  0  0  0  0  0  0  0  0  0  0
    8.5192    3.4689   23.4205 C   0  0  0  0  0  0  0  0  0  0  0  0
    6.1137   -3.8007   19.8302 N   0  3  0  0  0  0  0  0  0  0  0  0
    4.7788    2.0191   18.6795 N   0  0  0  0  0  0  0  0  0  0  0  0
   10.5898    0.6161   22.7524 N   0  0  0  0  0  0  0  0  0  0  0  0
    8.7035   -1.2292   20.6020 N   0  0  0  0  0  0  0  0  0  0  0  0
   10.7426    4.1014   22.4646 N   0  0  0  0  0  0  0  0  0  0  0  0
    6.1018    1.1684   17.0446 O   0  0  0  0  0  0  0  0  0  0  0  0
    8.5755   -1.5976   22.8309 O   0  0  0  0  0  0  0  0  0  0  0  0
    9.6804    1.8265   21.0784 O   0  0  0  0  0  0  0  0  0  0  0  0
   12.7799    3.6374   23.3292 O   0  0  0  0  0  0  0  0  0  0  0  0
   13.9085    5.7110   22.2027 F   0  0  0  0  0  0  0  0  0  0  0  0
   12.7543    5.0564   20.4858 F   0  0  0  0  0  0  0  0  0  0  0  0
   11.9298    6.5372   21.8550 F   0  0  0  0  0  0  0  0  0  0  0  0
    7.9908   -3.7365   20.7344 H   0  0  0  0  0  0  0  0  0  0  0  0
    7.9930   -3.3407   19.0204 H   0  0  0  0  0  0  0  0  0  0  0  0
    4.8962   -0.1010   20.6661 H   0  0  0  0  0  0  0  0  0  0  0  0
    6.0310    0.9714   21.4777 H   0  0  0  0  0  0  0  0  0  0  0  0
    4.9813    2.8977   20.5523 H   0  0  0  0  0  0  0  0  0  0  0  0
    3.5887    1.8120   20.4046 H   0  0  0  0  0  0  0  0  0  0  0  0
   12.0662    1.2438   24.1535 H   0  0  0  0  0  0  0  0  0  0  0  0
   10.5538    0.6544   24.8585 H   0  0  0  0  0  0  0  0  0  0  0  0
    7.4232    1.1219   19.5606 H   0  0  0  0  0  0  0  0  0  0  0  0
   11.0866   -0.5144   21.0239 H   0  0  0  0  0  0  0  0  0  0  0  0
   11.7381   -1.4208   25.0542 H   0  0  0  0  0  0  0  0  0  0  0  0
   11.1390   -2.6377   22.9316 H   0  0  0  0  0  0  0  0  0  0  0  0
   14.3388   -2.9518   22.7573 H   0  0  0  0  0  0  0  0  0  0  0  0
   14.5954   -2.1431   24.3095 H   0  0  0  0  0  0  0  0  0  0  0  0
   13.2536   -3.2759   24.1121 H   0  0  0  0  0  0  0  0  0  0  0  0
   14.1634   -0.8650   21.4608 H   0  0  0  0  0  0  0  0  0  0  0  0
   13.1351    0.4609   21.9863 H   0  0  0  0  0  0  0  0  0  0  0  0
   14.5522    0.0525   22.9254 H   0  0  0  0  0  0  0  0  0  0  0  0
    9.0256    5.5410   23.9521 H   0  0  0  0  0  0  0  0  0  0  0  0
    7.5333    4.9745   24.6748 H   0  0  0  0  0  0  0  0  0  0  0  0
    9.0771    4.4283   25.3111 H   0  0  0  0  0  0  0  0  0  0  0  0
    7.6221    1.4565   23.4844 H   0  0  0  0  0  0  0  0  0  0  0  0
    8.2753    1.9940   25.0266 H   0  0  0  0  0  0  0  0  0  0  0  0
    6.7547    2.6453   24.4318 H   0  0  0  0  0  0  0  0  0  0  0  0
    7.5396    3.0426   21.4849 H   0  0  0  0  0  0  0  0  0  0  0  0
    6.7298    4.2584   22.4352 H   0  0  0  0  0  0  0  0  0  0  0  0
    8.2101    4.6656   21.5995 H   0  0  0  0  0  0  0  0  0  0  0  0
    7.5430   -0.9574   18.2478 H   0  0  0  0  0  0  0  0  0  0  0  0
    5.9183   -1.3865   18.6900 H   0  0  0  0  0  0  0  0  0  0  0  0
    6.7057   -1.5699   21.1156 H   0  0  0  0  0  0  0  0  0  0  0  0
   10.4606    2.8606   24.1071 H   0  0  0  0  0  0  0  0  0  0  0  0
    6.2050   -4.7902   19.6535 H   0  0  0  0  0  0  0  0  0  0  0  0
    5.6213   -3.6563   20.7000 H   0  0  0  0  0  0  0  0  0  0  0  0
    5.6165   -3.3544   19.0724 H   0  0  0  0  0  0  0  0  0  0  0  0
    4.2155    2.6190   18.0897 H   0  0  0  0  0  0  0  0  0  0  0  0
    9.2876   -0.8974   19.8480 H   0  0  0  0  0  0  0  0  0  0  0  0
   10.2296    4.6720   21.8059 H   0  0  0  0  0  0  0  0  0  0  0  0
  1  9  1  0  0  0  0
  1 25  1  0  0  0  0
  1 29  2  0  0  0  0
  2 20  1  0  0  0  0
  2 24  1  0  0  0  0
  2 36  1  0  0  0  0
  2 37  1  0  0  0  0
  3 10  1  0  0  0  0
  3 27  1  0  0  0  0
  3 30  2  0  0  0  0
  4 21  1  0  0  0  0
  4 26  1  0  0  0  0
  4 31  2  0  0  0  0
  5 22  1  0  0  0  0
  5 28  1  0  0  0  0
  5 32  2  0  0  0  0
  6  7  1  0  0  0  0
  6  9  1  0  0  0  0
  6 38  1  0  0  0  0
  6 39  1  0  0  0  0
  7 25  1  0  0  0  0
  7 40  1  0  0  0  0
  7 41  1  0  0  0  0
  8 11  1  0  0  0  0
  8 26  1  0  0  0  0
  8 42  1  0  0  0  0
  8 43  1  0  0  0  0
  9 19  1  0  0  0  0
  9 44  1  1  0  0  0
 10 12  1  0  0  0  0
 10 26  1  0  0  0  0
 10 45  1  6  0  0  0
 11 12  1  0  0  0  0
 11 13  1  0  0  0  0
 11 46  1  1  0  0  0
 12 13  1  0  0  0  0
 12 47  1  1  0  0  0
 13 14  1  0  0  0  0
 13 15  1  0  0  0  0
 14 48  1  0  0  0  0
 14 49  1  0  0  0  0
 14 50  1  0  0  0  0
 15 51  1  0  0  0  0
 15 52  1  0  0  0  0
 15 53  1  0  0  0  0
 16 23  1  0  0  0  0
 16 54  1  0  0  0  0
 16 55  1  0  0  0  0
 16 56  1  0  0  0  0
 17 23  1  0  0  0  0
 17 57  1  0  0  0  0
 17 58  1  0  0  0  0
 17 59  1  0  0  0  0
 18 23  1  0  0  0  0
 18 60  1  0  0  0  0
 18 61  1  0  0  0  0
 18 62  1  0  0  0  0
 19 20  1  0  0  0  0
 19 63  1  0  0  0  0
 19 64  1  0  0  0  0
 20 27  1  0  0  0  0
 20 65  1  1  0  0  0
 21 23  1  0  0  0  0
 21 28  1  0  0  0  0
 21 66  1  1  0  0  0
 22 33  1  0  0  0  0
 22 34  1  0  0  0  0
 22 35  1  0  0  0  0
 24 67  1  0  0  0  0
 24 68  1  0  0  0  0
 24 69  1  0  0  0  0
 25 70  1  0  0  0  0
 27 71  1  0  0  0  0
 28 72  1  0  0  0  0
M  CHG  1  24   1
M  END
$$$$
