7VTH_ligand1
 OpenBabel04052409413D

 53 55  0  0  0  0  0  0  0  0999 V2000
    7.2721   -2.4994   22.0327 C   0  0  0  0  0  0  0  0  0  0  0  0
    7.0568   -4.2759   23.7809 C   0  0  0  0  0  0  0  0  0  0  0  0
    7.4243   -5.5418   23.2587 C   0  0  0  0  0  0  0  0  0  0  0  0
    8.5334   -5.7196   22.2376 C   0  0  0  0  0  0  0  0  0  0  0  0
    6.7354   -6.6925   23.6846 C   0  0  0  0  0  0  0  0  0  0  0  0
    4.6741    1.9255   19.6041 C   0  0  0  0  0  0  0  0  0  0  0  0
    5.3060    0.6804   19.2231 N   0  0  0  0  0  0  0  0  0  0  0  0
    6.0375    0.3993   18.1304 C   0  0  0  0  0  0  0  0  0  0  0  0
    6.0892    1.0940   17.1180 O   0  0  0  0  0  0  0  0  0  0  0  0
    6.9217   -0.8505   18.2283 C   0  0  0  0  0  0  0  0  0  0  0  0
    7.0179   -1.3947   19.6044 N   0  0  0  0  0  0  0  0  0  0  0  0
    6.2459   -2.4739   19.9428 C   0  0  0  0  0  0  0  0  0  0  0  0
    5.4436   -2.9622   19.1498 O   0  0  0  0  0  0  0  0  0  0  0  0
    6.4241   -3.0340   21.2057 N   0  0  0  0  0  0  0  0  0  0  0  0
    7.5706   -3.0868   23.2562 N   0  0  0  0  0  0  0  0  0  0  0  0
    5.7048   -6.6162   24.6400 C   0  0  0  0  0  0  0  0  0  0  0  0
    5.0427   -7.7898   24.9273 O   0  0  0  0  0  0  0  0  0  0  0  0
    3.9787   -7.7853   25.7724 C   0  0  0  0  0  0  0  0  0  0  0  0
    2.8946   -7.2431   25.1659 F   0  0  0  0  0  0  0  0  0  0  0  0
    3.6507   -9.0599   26.0868 F   0  0  0  0  0  0  0  0  0  0  0  0
    5.4011   -5.3589   25.2169 C   0  0  0  0  0  0  0  0  0  0  0  0
    6.0780   -4.2002   24.7909 C   0  0  0  0  0  0  0  0  0  0  0  0
    7.9671   -1.3089   21.7238 N   0  0  0  0  0  0  0  0  0  0  0  0
    8.9295   -0.7175   22.6790 C   0  0  0  0  0  0  0  0  0  0  0  0
   10.3812   -1.1011   22.4161 C   0  0  0  0  0  0  0  0  0  0  0  0
   11.4107   -0.3482   23.0148 C   0  0  0  0  0  0  0  0  0  0  0  0
   12.7566   -0.6954   22.8003 C   0  0  0  0  0  0  0  0  0  0  0  0
   13.7356    0.0294   23.3792 F   0  0  0  0  0  0  0  0  0  0  0  0
   13.0845   -1.7963   21.9909 C   0  0  0  0  0  0  0  0  0  0  0  0
   14.3741   -2.1452   21.8106 F   0  0  0  0  0  0  0  0  0  0  0  0
   12.0682   -2.5433   21.3760 C   0  0  0  0  0  0  0  0  0  0  0  0
   12.3822   -3.5971   20.5860 F   0  0  0  0  0  0  0  0  0  0  0  0
   10.7233   -2.2011   21.5953 C   0  0  0  0  0  0  0  0  0  0  0  0
    7.8201   -0.7386   20.4996 C   0  0  0  0  0  0  0  0  0  0  0  0
    8.3791    0.3252   20.2185 O   0  0  0  0  0  0  0  0  0  0  0  0
    9.2261   -6.4895   22.5794 H   0  0  0  0  0  0  0  0  0  0  0  0
    8.1201   -6.0422   21.2851 H   0  0  0  0  0  0  0  0  0  0  0  0
    9.1126   -4.8130   22.0741 H   0  0  0  0  0  0  0  0  0  0  0  0
    6.9921   -7.6526   23.2596 H   0  0  0  0  0  0  0  0  0  0  0  0
    4.8201    2.0771   20.6738 H   0  0  0  0  0  0  0  0  0  0  0  0
    5.1091    2.7877   19.1065 H   0  0  0  0  0  0  0  0  0  0  0  0
    3.6005    1.8708   19.4383 H   0  0  0  0  0  0  0  0  0  0  0  0
    5.3474   -0.0123   19.9573 H   0  0  0  0  0  0  0  0  0  0  0  0
    7.9201   -0.5914   17.8727 H   0  0  0  0  0  0  0  0  0  0  0  0
    6.5748   -1.5885   17.5082 H   0  0  0  0  0  0  0  0  0  0  0  0
    8.1117   -2.5632   23.9281 H   0  0  0  0  0  0  0  0  0  0  0  0
    4.2004   -7.2598   26.7002 H   0  0  0  0  0  0  0  0  0  0  0  0
    4.6272   -5.2472   25.9604 H   0  0  0  0  0  0  0  0  0  0  0  0
    5.7987   -3.2411   25.2037 H   0  0  0  0  0  0  0  0  0  0  0  0
    8.6947   -0.9520   23.7169 H   0  0  0  0  0  0  0  0  0  0  0  0
    8.8574    0.3714   22.6502 H   0  0  0  0  0  0  0  0  0  0  0  0
   11.1733    0.4934   23.6464 H   0  0  0  0  0  0  0  0  0  0  0  0
    9.9646   -2.8041   21.1252 H   0  0  0  0  0  0  0  0  0  0  0  0
  1 14  2  0  0  0  0
  1 15  1  0  0  0  0
  1 23  1  0  0  0  0
  2  3  2  0  0  0  0
  2 15  1  0  0  0  0
  2 22  1  0  0  0  0
  3  4  1  0  0  0  0
  3  5  1  0  0  0  0
  4 36  1  0  0  0  0
  4 37  1  0  0  0  0
  4 38  1  0  0  0  0
  5 16  2  0  0  0  0
  5 39  1  0  0  0  0
  6  7  1  0  0  0  0
  6 40  1  0  0  0  0
  6 41  1  0  0  0  0
  6 42  1  0  0  0  0
  7  8  1  0  0  0  0
  7 43  1  0  0  0  0
  8  9  2  0  0  0  0
  8 10  1  0  0  0  0
 10 11  1  0  0  0  0
 10 44  1  0  0  0  0
 10 45  1  0  0  0  0
 11 12  1  0  0  0  0
 11 34  1  0  0  0  0
 12 13  2  0  0  0  0
 12 14  1  0  0  0  0
 15 46  1  0  0  0  0
 16 17  1  0  0  0  0
 16 21  1  0  0  0  0
 17 18  1  0  0  0  0
 18 19  1  0  0  0  0
 18 20  1  0  0  0  0
 18 47  1  0  0  0  0
 21 22  2  0  0  0  0
 21 48  1  0  0  0  0
 22 49  1  0  0  0  0
 23 24  1  0  0  0  0
 23 34  1  0  0  0  0
 24 25  1  0  0  0  0
 24 50  1  0  0  0  0
 24 51  1  0  0  0  0
 25 26  2  0  0  0  0
 25 33  1  0  0  0  0
 26 27  1  0  0  0  0
 26 52  1  0  0  0  0
 27 28  1  0  0  0  0
 27 29  2  0  0  0  0
 29 30  1  0  0  0  0
 29 31  1  0  0  0  0
 31 32  1  0  0  0  0
 31 33  2  0  0  0  0
 33 53  1  0  0  0  0
 34 35  2  0  0  0  0
M  END
$$$$
