7VU6_ligand1
 OpenBabel04052409413D

 54 58  0  0  0  0  0  0  0  0999 V2000
    8.0595   -2.6307   21.7525 C   0  0  0  0  0  3  0  0  0  0  0  0
    7.7320   -4.4150   23.3881 C   0  0  0  0  0  0  0  0  0  0  0  0
    6.7886   -4.3468   24.4356 C   0  0  0  0  0  0  0  0  0  0  0  0
    6.1013   -5.5266   24.7636 C   0  0  0  0  0  0  0  0  0  0  0  0
    4.2495    2.5327   18.6069 C   0  0  0  0  0  0  0  0  0  0  0  0
    5.1783    1.5540   18.0379 N   0  0  0  0  0  4  0  0  0  0  0  0
    5.5943    1.5188   16.6983 C   0  0  0  0  0  0  0  0  0  0  0  0
    6.4166    0.5689   16.4696 N   0  0  0  0  0  0  0  0  0  0  0  0
    6.5158   -0.0069   17.7162 C   0  0  0  0  0  0  0  0  0  0  0  0
    7.3037   -1.0581   18.0149 C   0  0  0  0  0  0  0  0  0  0  0  0
    7.5039   -1.5566   19.3056 N   0  0  0  0  0  0  0  0  0  0  0  0
    6.8881   -2.7185   19.6316 C   0  0  0  0  0  0  0  0  0  0  0  0
    6.1141   -3.3405   18.9064 O   0  0  0  0  0  0  0  0  0  0  0  0
    7.1944   -3.2482   20.9192 N   0  0  0  0  0  0  0  0  0  0  0  0
    8.3488   -3.1898   22.9541 N   0  0  0  0  0  0  0  0  0  0  0  0
    5.0924   -5.7760   25.6770 C   0  0  0  0  0  0  0  0  0  0  0  0
    4.7842   -7.1216   25.5173 N   0  0  0  0  0  0  0  0  0  0  0  0
    3.7864   -7.9002   26.2145 C   0  0  0  0  0  0  0  0  0  0  0  0
    5.5716   -7.7182   24.5522 N   0  0  0  0  0  0  0  0  0  0  0  0
    6.3634   -6.7211   24.1228 C   0  0  0  0  0  0  0  0  0  0  0  0
    7.3546   -6.8200   23.1315 C   0  0  0  0  0  0  0  0  0  0  0  0
    8.0406   -5.6466   22.7555 C   0  0  0  0  0  0  0  0  0  0  0  0
    9.2544   -5.7409   21.5325 Cl  0  0  0  0  0  0  0  0  0  0  0  0
    8.6166   -1.4379   21.4128 N   0  0  0  0  0  0  0  0  0  0  0  0
    9.6450   -0.7795   22.2520 C   0  0  0  0  0  0  0  0  0  0  0  0
   11.0611   -1.2771   21.9835 C   0  0  0  0  0  0  0  0  0  0  0  0
   12.1450   -0.5980   22.5773 C   0  0  0  0  0  0  0  0  0  0  0  0
   11.9160    0.4574   23.3918 F   0  0  0  0  0  0  0  0  0  0  0  0
   13.4653   -1.0075   22.3166 C   0  0  0  0  0  0  0  0  0  0  0  0
   13.7111   -2.0971   21.4623 C   0  0  0  0  0  0  0  0  0  0  0  0
   14.9739   -2.5034   21.2226 F   0  0  0  0  0  0  0  0  0  0  0  0
   12.6397   -2.7792   20.8636 C   0  0  0  0  0  0  0  0  0  0  0  0
   12.8834   -3.8217   20.0340 F   0  0  0  0  0  0  0  0  0  0  0  0
   11.3185   -2.3817   21.1343 C   0  0  0  0  0  0  0  0  0  0  0  0
    8.2819   -0.8290   20.1476 C   0  0  0  0  0  0  0  0  0  0  0  0
    8.7200    0.2933   19.8845 O   0  0  0  0  0  0  0  0  0  0  0  0
    5.7223    0.6357   18.6743 N   0  0  0  0  0  0  0  0  0  0  0  0
    6.5580   -3.4131   24.9293 H   0  0  0  0  0  0  0  0  0  0  0  0
    3.6089    2.0259   19.3276 H   0  0  0  0  0  0  0  0  0  0  0  0
    4.8338    3.3127   19.0964 H   0  0  0  0  0  0  0  0  0  0  0  0
    3.6479    2.9581   17.8028 H   0  0  0  0  0  0  0  0  0  0  0  0
    5.2165    2.2615   15.9980 H   0  0  0  0  0  0  0  0  0  0  0  0
    7.9208   -1.5494   17.2765 H   0  0  0  0  0  0  0  0  0  0  0  0
    6.7756   -4.1000   21.2663 H   0  0  0  0  0  0  0  0  0  0  0  0
    8.7792   -2.5826   23.6410 H   0  0  0  0  0  0  0  0  0  0  0  0
    4.5655   -5.1639   26.3947 H   0  0  0  0  0  0  0  0  0  0  0  0
    3.4742   -8.7500   25.6049 H   0  0  0  0  0  0  0  0  0  0  0  0
    4.2018   -8.2627   27.1551 H   0  0  0  0  0  0  0  0  0  0  0  0
    2.9154   -7.2803   26.4271 H   0  0  0  0  0  0  0  0  0  0  0  0
    7.5822   -7.7637   22.6607 H   0  0  0  0  0  0  0  0  0  0  0  0
    9.3928   -0.8899   23.3019 H   0  0  0  0  0  0  0  0  0  0  0  0
    9.6375    0.3018   22.1117 H   0  0  0  0  0  0  0  0  0  0  0  0
   14.2925   -0.4819   22.7615 H   0  0  0  0  0  0  0  0  0  0  0  0
   10.5175   -2.9324   20.6646 H   0  0  0  0  0  0  0  0  0  0  0  0
  1 14  1  0  0  0  0
  1 15  1  0  0  0  0
  1 24  1  0  0  0  0
  2  3  2  0  0  0  0
  2 15  1  0  0  0  0
  2 22  1  0  0  0  0
  3  4  1  0  0  0  0
  3 38  1  0  0  0  0
  4 16  2  0  0  0  0
  4 20  1  0  0  0  0
  5  6  1  0  0  0  0
  5 39  1  0  0  0  0
  5 40  1  0  0  0  0
  5 41  1  0  0  0  0
  6  7  1  0  0  0  0
  6 37  2  0  0  0  0
  7  8  2  0  0  0  0
  7 42  1  0  0  0  0
  8  9  1  0  0  0  0
  9 10  2  0  0  0  0
  9 37  1  0  0  0  0
 10 11  1  0  0  0  0
 10 43  1  0  0  0  0
 11 12  1  0  0  0  0
 11 35  1  0  0  0  0
 12 13  2  0  0  0  0
 12 14  1  0  0  0  0
 14 44  1  0  0  0  0
 15 45  1  0  0  0  0
 16 17  1  0  0  0  0
 16 46  1  0  0  0  0
 17 18  1  0  0  0  0
 17 19  1  0  0  0  0
 18 47  1  0  0  0  0
 18 48  1  0  0  0  0
 18 49  1  0  0  0  0
 19 20  2  0  0  0  0
 20 21  1  0  0  0  0
 21 22  2  0  0  0  0
 21 50  1  0  0  0  0
 22 23  1  0  0  0  0
 24 25  1  0  0  0  0
 24 35  1  0  0  0  0
 25 26  1  0  0  0  0
 25 51  1  0  0  0  0
 25 52  1  0  0  0  0
 26 27  2  0  0  0  0
 26 34  1  0  0  0  0
 27 28  1  0  0  0  0
 27 29  1  0  0  0  0
 29 30  2  0  0  0  0
 29 53  1  0  0  0  0
 30 31  1  0  0  0  0
 30 32  1  0  0  0  0
 32 33  1  0  0  0  0
 32 34  2  0  0  0  0
 34 54  1  0  0  0  0
 35 36  2  0  0  0  0
M  END
$$$$
