7VVP_ligand
 OpenBabel04052409413D

 67 69  0  0  1  0  0  0  0  0999 V2000
   12.1608    7.4158   25.9493 C   0  0  0  0  0  0  0  0  0  0  0  0
   13.1750    6.1408   28.2791 C   0  0  0  0  0  0  0  0  0  0  0  0
   11.1367   -0.1518   22.6482 C   0  0  2  0  0  0  0  0  0  0  0  0
    6.5013    0.8014   19.9718 C   0  0  0  0  0  0  0  0  0  0  0  0
    6.2299    1.6123   18.8045 C   0  0  0  0  0  0  0  0  0  0  0  0
    5.8514    1.3409   21.0104 C   0  0  0  0  0  0  0  0  0  0  0  0
    7.2534   -2.6291   21.2401 C   0  0  0  0  0  0  0  0  0  0  0  0
   11.1016    2.3427   22.6786 C   0  0  0  0  0  0  0  0  0  0  0  0
   11.3893    3.5536   23.4776 C   0  0  0  0  0  0  0  0  0  0  0  0
   11.9223    3.7617   24.7241 C   0  0  0  0  0  0  0  0  0  0  0  0
   11.9156    5.1805   24.9613 C   0  0  0  0  0  0  0  0  0  0  0  0
   11.3842    5.8130   23.8034 C   0  0  0  0  0  0  0  0  0  0  0  0
   11.2555    7.2076   23.6975 C   0  0  0  0  0  0  0  0  0  0  0  0
   11.6453    8.0116   24.7814 C   0  0  0  0  0  0  0  0  0  0  0  0
   12.3051    6.0065   26.0440 C   0  0  0  0  0  0  0  0  0  0  0  0
    9.6185   -0.4144   22.6306 C   0  0  0  0  0  0  0  0  0  0  0  0
    7.6711   -1.1452   21.2569 C   0  0  2  0  0  0  0  0  0  0  0  0
    7.3814   -0.4377   19.8983 C   0  0  0  0  0  0  0  0  0  0  0  0
    5.0846    2.5616   20.6044 C   0  0  0  0  0  0  0  0  0  0  0  0
    7.7684   -3.5245   22.3673 C   0  0  0  0  0  0  0  0  0  0  0  0
   11.8334   -1.2664   23.4664 C   0  0  0  0  0  0  0  0  0  0  0  0
   13.3412   -1.0638   23.7321 C   0  0  0  0  0  0  0  0  0  0  0  0
   13.9107   -2.2074   24.5809 C   0  0  0  0  0  0  0  0  0  0  0  0
   14.1355   -0.9129   22.4306 C   0  0  0  0  0  0  0  0  0  0  0  0
   11.0771    4.7872   22.9383 N   0  0  0  0  0  0  0  0  0  0  0  0
   11.4187    1.1642   23.2391 N   0  0  0  0  0  0  0  0  0  0  0  0
    9.1054   -0.9958   21.5320 N   0  0  0  0  0  0  0  0  0  0  0  0
    5.4088    2.5994   19.1913 N   0  0  0  0  0  0  0  0  0  0  0  0
   10.5739    2.4351   21.5698 O   0  0  0  0  0  0  0  0  0  0  0  0
   12.8176    5.3591   27.1493 O   0  0  0  0  0  0  0  0  0  0  0  0
    6.6670    1.4728   17.6666 O   0  0  0  0  0  0  0  0  0  0  0  0
    7.3589   -2.9935   23.6153 O   0  0  0  0  0  0  0  0  0  0  0  0
    6.3156   -5.0316   24.6397 O   0  0  0  0  0  0  0  0  0  0  0  0
    4.9700   -3.6012   23.0589 O   0  0  0  0  0  1  0  0  0  0  0  0
    5.5537   -2.7283   25.3455 O   0  0  0  0  0  1  0  0  0  0  0  0
    6.4947   -3.1186   20.4014 O   0  0  0  0  0  0  0  0  0  0  0  0
    8.9340   -0.0765   23.5964 O   0  0  0  0  0  0  0  0  0  0  0  0
    5.9655   -3.6255   24.1975 P   0  0  0  0  0  0  0  0  0  0  0  0
   12.4485    8.0645   26.7617 H   0  0  0  0  0  0  0  0  0  0  0  0
   13.5497    5.4830   29.0626 H   0  0  0  0  0  0  0  0  0  0  0  0
   13.9648    6.8537   28.0420 H   0  0  0  0  0  0  0  0  0  0  0  0
   12.3140    6.6762   28.6817 H   0  0  0  0  0  0  0  0  0  0  0  0
   11.5179   -0.1599   21.6272 H   0  0  0  0  0  0  0  0  0  0  0  0
    5.8338    0.9853   22.0290 H   0  0  0  0  0  0  0  0  0  0  0  0
   12.2643    3.0150   25.4166 H   0  0  0  0  0  0  0  0  0  0  0  0
   10.8545    7.6529   22.7994 H   0  0  0  0  0  0  0  0  0  0  0  0
   11.5474    9.0843   24.7227 H   0  0  0  0  0  0  0  0  0  0  0  0
    7.0942   -0.6969   22.0616 H   0  0  0  0  0  0  0  0  0  0  0  0
    8.3173   -0.1320   19.4228 H   0  0  0  0  0  0  0  0  0  0  0  0
    6.9197   -1.0991   19.1633 H   0  0  0  0  0  0  0  0  0  0  0  0
    5.4410    3.4518   21.1234 H   0  0  0  0  0  0  0  0  0  0  0  0
    4.0137    2.4366   20.7673 H   0  0  0  0  0  0  0  0  0  0  0  0
    8.8578   -3.5609   22.3356 H   0  0  0  0  0  0  0  0  0  0  0  0
    7.4090   -4.5454   22.2348 H   0  0  0  0  0  0  0  0  0  0  0  0
   11.6943   -2.2156   22.9443 H   0  0  0  0  0  0  0  0  0  0  0  0
   11.3276   -1.3905   24.4243 H   0  0  0  0  0  0  0  0  0  0  0  0
   13.4777   -0.1498   24.3128 H   0  0  0  0  0  0  0  0  0  0  0  0
   14.9560   -2.0289   24.8360 H   0  0  0  0  0  0  0  0  0  0  0  0
   13.3601   -2.3241   25.5143 H   0  0  0  0  0  0  0  0  0  0  0  0
   13.8569   -3.1509   24.0428 H   0  0  0  0  0  0  0  0  0  0  0  0
   15.2005   -0.9902   22.6139 H   0  0  0  0  0  0  0  0  0  0  0  0
   13.8730   -1.6768   21.6983 H   0  0  0  0  0  0  0  0  0  0  0  0
   13.9678    0.0702   21.9960 H   0  0  0  0  0  0  0  0  0  0  0  0
   10.6975    4.8891   22.0051 H   0  0  0  0  0  0  0  0  0  0  0  0
   11.8346    1.1759   24.1595 H   0  0  0  0  0  0  0  0  0  0  0  0
    9.7457   -1.2804   20.8021 H   0  0  0  0  0  0  0  0  0  0  0  0
    5.0819    3.3344   18.5789 H   0  0  0  0  0  0  0  0  0  0  0  0
  1 14  2  0  0  0  0
  1 15  1  0  0  0  0
  1 39  1  0  0  0  0
  2 30  1  0  0  0  0
  2 40  1  0  0  0  0
  2 41  1  0  0  0  0
  2 42  1  0  0  0  0
  3 16  1  0  0  0  0
  3 21  1  0  0  0  0
  3 26  1  0  0  0  0
  3 43  1  6  0  0  0
  4  5  1  0  0  0  0
  4  6  2  0  0  0  0
  4 18  1  0  0  0  0
  5 28  1  0  0  0  0
  5 31  2  0  0  0  0
  6 19  1  0  0  0  0
  6 44  1  0  0  0  0
  7 17  1  0  0  0  0
  7 20  1  0  0  0  0
  7 36  2  0  0  0  0
  8  9  1  0  0  0  0
  8 26  1  0  0  0  0
  8 29  2  0  0  0  0
  9 10  2  0  0  0  0
  9 25  1  0  0  0  0
 10 11  1  0  0  0  0
 10 45  1  0  0  0  0
 11 12  1  0  0  0  0
 11 15  2  0  0  0  0
 12 13  2  0  0  0  0
 12 25  1  0  0  0  0
 13 14  1  0  0  0  0
 13 46  1  0  0  0  0
 14 47  1  0  0  0  0
 15 30  1  0  0  0  0
 16 27  1  0  0  0  0
 16 37  2  0  0  0  0
 17 18  1  0  0  0  0
 17 27  1  0  0  0  0
 17 48  1  1  0  0  0
 18 49  1  0  0  0  0
 18 50  1  0  0  0  0
 19 28  1  0  0  0  0
 19 51  1  0  0  0  0
 19 52  1  0  0  0  0
 20 32  1  0  0  0  0
 20 53  1  0  0  0  0
 20 54  1  0  0  0  0
 21 22  1  0  0  0  0
 21 55  1  0  0  0  0
 21 56  1  0  0  0  0
 22 23  1  0  0  0  0
 22 24  1  0  0  0  0
 22 57  1  0  0  0  0
 23 58  1  0  0  0  0
 23 59  1  0  0  0  0
 23 60  1  0  0  0  0
 24 61  1  0  0  0  0
 24 62  1  0  0  0  0
 24 63  1  0  0  0  0
 25 64  1  0  0  0  0
 26 65  1  0  0  0  0
 27 66  1  0  0  0  0
 28 67  1  0  0  0  0
 32 38  1  0  0  0  0
 33 38  2  0  0  0  0
 34 38  1  0  0  0  0
 35 38  1  0  0  0  0
M  END
$$$$
