7VVT_ligand1
 OpenBabel04052409413D

 37 38  0  0  1  0  0  0  0  0999 V2000
    6.0511   -5.2885   22.1640 N   0  0  0  0  0  0  0  0  0  0  0  0
   10.4921   -4.1189   23.7024 N   0  0  0  0  0  0  0  0  0  0  0  0
    6.5545   -4.1505   24.3777 C   0  0  0  0  0  0  0  0  0  0  0  0
    8.4010   -4.7883   22.6601 C   0  0  0  0  0  0  0  0  0  0  0  0
    9.4613   -3.7200   22.9349 C   0  0  0  0  0  0  0  0  0  0  0  0
   11.7386   -3.4761   23.9127 C   0  0  0  0  0  0  0  0  0  0  0  0
   12.5178   -3.9159   25.0049 C   0  0  0  0  0  0  0  0  0  0  0  0
   14.2977   -2.3814   24.3767 C   0  0  0  0  0  0  0  0  0  0  0  0
    5.7516   -5.1665   20.8467 C   0  0  0  0  0  0  0  0  0  0  0  0
    6.9319   -4.3508   22.8915 C   0  0  1  0  0  0  0  0  0  0  0  0
   13.5291   -1.9356   23.2832 C   0  0  0  0  0  0  0  0  0  0  0  0
   12.2581   -2.4865   23.0461 C   0  0  0  0  0  0  0  0  0  0  0  0
    5.9649   -3.8237   20.1452 C   0  0  0  0  0  0  0  0  0  0  0  0
    5.5836   -6.4370   22.9467 C   0  0  0  0  0  0  0  0  0  0  0  0
    4.8368   -5.9384   24.1916 C   0  0  0  0  0  0  0  0  0  0  0  0
   13.7921   -3.3690   25.2383 C   0  0  0  0  0  0  0  0  0  0  0  0
    5.5901   -4.9170   24.9105 N   0  0  0  0  0  0  0  0  0  0  0  0
    7.1280   -3.2945   25.0463 O   0  0  0  0  0  0  0  0  0  0  0  0
    9.3274   -2.5890   22.4716 O   0  0  0  0  0  0  0  0  0  0  0  0
    5.2839   -6.0893   20.1823 O   0  0  0  0  0  0  0  0  0  0  0  0
   14.1349   -0.7097   22.2344 Cl  0  0  0  0  0  0  0  0  0  0  0  0
   10.3933   -5.0204   24.1444 H   0  0  0  0  0  0  0  0  0  0  0  0
    8.6117   -5.6861   23.2443 H   0  0  0  0  0  0  0  0  0  0  0  0
    8.5383   -5.0794   21.6183 H   0  0  0  0  0  0  0  0  0  0  0  0
   12.1452   -4.6891   25.6602 H   0  0  0  0  0  0  0  0  0  0  0  0
   15.2713   -1.9632   24.5622 H   0  0  0  0  0  0  0  0  0  0  0  0
    6.7987   -3.3499   22.4805 H   0  0  0  0  0  0  0  0  0  0  0  0
   11.7088   -2.1473   22.1802 H   0  0  0  0  0  0  0  0  0  0  0  0
    5.7566   -3.9066   19.0781 H   0  0  0  0  0  0  0  0  0  0  0  0
    5.2937   -3.0714   20.5597 H   0  0  0  0  0  0  0  0  0  0  0  0
    6.9888   -3.4723   20.2589 H   0  0  0  0  0  0  0  0  0  0  0  0
    6.4415   -7.0462   23.2301 H   0  0  0  0  0  0  0  0  0  0  0  0
    4.9128   -7.0873   22.3888 H   0  0  0  0  0  0  0  0  0  0  0  0
    4.6254   -6.7703   24.8628 H   0  0  0  0  0  0  0  0  0  0  0  0
    3.8756   -5.5115   23.9016 H   0  0  0  0  0  0  0  0  0  0  0  0
   14.3830   -3.7101   26.0769 H   0  0  0  0  0  0  0  0  0  0  0  0
    5.3568   -4.7701   25.8816 H   0  0  0  0  0  0  0  0  0  0  0  0
  1  9  1  0  0  0  0
  1 10  1  0  0  0  0
  1 14  1  0  0  0  0
  2  5  1  0  0  0  0
  2  6  1  0  0  0  0
  2 22  1  0  0  0  0
  3 10  1  0  0  0  0
  3 17  1  0  0  0  0
  3 18  2  0  0  0  0
  4  5  1  0  0  0  0
  4 10  1  0  0  0  0
  4 23  1  0  0  0  0
  4 24  1  0  0  0  0
  5 19  2  0  0  0  0
  6  7  2  0  0  0  0
  6 12  1  0  0  0  0
  7 16  1  0  0  0  0
  7 25  1  0  0  0  0
  8 11  1  0  0  0  0
  8 16  2  0  0  0  0
  8 26  1  0  0  0  0
  9 13  1  0  0  0  0
  9 20  2  0  0  0  0
 10 27  1  6  0  0  0
 11 12  2  0  0  0  0
 11 21  1  0  0  0  0
 12 28  1  0  0  0  0
 13 29  1  0  0  0  0
 13 30  1  0  0  0  0
 13 31  1  0  0  0  0
 14 15  1  0  0  0  0
 14 32  1  0  0  0  0
 14 33  1  0  0  0  0
 15 17  1  0  0  0  0
 15 34  1  0  0  0  0
 15 35  1  0  0  0  0
 16 36  1  0  0  0  0
 17 37  1  0  0  0  0
M  END
$$$$
