Mpro-x1386_ligand
 OpenBabel04052409413D

 32 33  0  0  0  0  0  0  0  0999 V2000
    6.8538   -2.1950   20.9243 N   0  0  0  0  0  0  0  0  0  0  0  0
    6.5311   -1.8914   18.4716 C   0  0  0  0  0  0  0  0  0  0  0  0
    5.8049   -3.7807   19.6936 O   0  0  0  0  0  0  0  0  0  0  0  0
    6.3800   -2.6962   19.7611 C   0  0  0  0  0  0  0  0  0  0  0  0
    7.7321   -1.0285   21.0458 C   0  0  0  0  0  0  0  0  0  0  0  0
    6.6065   -2.8298   22.2251 C   0  0  0  0  0  0  0  0  0  0  0  0
    7.9352   -3.2430   22.8871 C   0  0  0  0  0  0  0  0  0  0  0  0
   10.1604   -2.4775   23.6386 C   0  0  0  0  0  0  0  0  0  0  0  0
   11.1277   -1.3327   23.6758 C   0  0  0  0  0  0  0  0  0  0  0  0
   12.2239   -1.1997   22.7677 C   0  0  0  0  0  0  0  0  0  0  0  0
   12.9333   -0.0425   22.9423 C   0  0  0  0  0  0  0  0  0  0  0  0
   11.0411   -0.2716   24.5425 C   0  0  0  0  0  0  0  0  0  0  0  0
    9.0860   -1.4921   21.5977 C   0  0  0  0  0  0  0  0  0  0  0  0
    8.9015   -2.1167   22.9358 N   0  3  0  0  0  0  0  0  0  0  0  0
   12.2630    0.9291   24.2210 S   0  0  0  0  0  0  0  0  0  0  0  0
    6.2988   -2.5205   17.6173 H   0  0  0  0  0  0  0  0  0  0  0  0
    5.8484   -1.0452   18.4611 H   0  0  0  0  0  0  0  0  0  0  0  0
    7.5456   -1.5288   18.3241 H   0  0  0  0  0  0  0  0  0  0  0  0
    7.2781   -0.3125   21.7327 H   0  0  0  0  0  0  0  0  0  0  0  0
    7.8838   -0.4745   20.1224 H   0  0  0  0  0  0  0  0  0  0  0  0
    5.9454   -3.6945   22.1582 H   0  0  0  0  0  0  0  0  0  0  0  0
    6.0907   -2.1166   22.8687 H   0  0  0  0  0  0  0  0  0  0  0  0
    8.3770   -4.0803   22.3453 H   0  0  0  0  0  0  0  0  0  0  0  0
    7.7427   -3.5845   23.9007 H   0  0  0  0  0  0  0  0  0  0  0  0
    9.9243   -2.7976   24.6540 H   0  0  0  0  0  0  0  0  0  0  0  0
   10.6171   -3.3348   23.1469 H   0  0  0  0  0  0  0  0  0  0  0  0
   12.4425   -1.9388   22.0113 H   0  0  0  0  0  0  0  0  0  0  0  0
   13.7971    0.3029   22.3928 H   0  0  0  0  0  0  0  0  0  0  0  0
   10.3205   -0.1047   25.3311 H   0  0  0  0  0  0  0  0  0  0  0  0
    9.7440   -0.6275   21.6489 H   0  0  0  0  0  0  0  0  0  0  0  0
    9.5520   -2.2064   20.9177 H   0  0  0  0  0  0  0  0  0  0  0  0
    8.4711   -1.4014   23.5046 H   0  0  0  0  0  0  0  0  0  0  0  0
  1  4  1  0  0  0  0
  1  5  1  0  0  0  0
  1  6  1  0  0  0  0
  2  4  1  0  0  0  0
  2 16  1  0  0  0  0
  2 17  1  0  0  0  0
  2 18  1  0  0  0  0
  3  4  2  0  0  0  0
  5 13  1  0  0  0  0
  5 19  1  0  0  0  0
  5 20  1  0  0  0  0
  6  7  1  0  0  0  0
  6 21  1  0  0  0  0
  6 22  1  0  0  0  0
  7 14  1  0  0  0  0
  7 23  1  0  0  0  0
  7 24  1  0  0  0  0
  8  9  1  0  0  0  0
  8 14  1  0  0  0  0
  8 25  1  0  0  0  0
  8 26  1  0  0  0  0
  9 10  1  0  0  0  0
  9 12  2  0  0  0  0
 10 11  2  0  0  0  0
 10 27  1  0  0  0  0
 11 15  1  0  0  0  0
 11 28  1  0  0  0  0
 12 15  1  0  0  0  0
 12 29  1  0  0  0  0
 13 14  1  0  0  0  0
 13 30  1  0  0  0  0
 13 31  1  0  0  0  0
 14 32  1  0  0  0  0
M  CHG  1  14   1
M  END
$$$$
