Mpro-x1336_ligand
 OpenBabel04052409413D

 40 41  0  0  0  0  0  0  0  0999 V2000
    7.3487   -2.3681   23.7223 N   0  0  0  0  0  0  0  0  0  0  0  0
    6.0487   -5.3831   29.0017 C   0  0  0  0  0  0  0  0  0  0  0  0
    8.4860   -0.8537   25.5002 O   0  0  0  0  0  0  0  0  0  0  0  0
    7.0533   -4.8964   27.9770 C   0  0  0  0  0  0  0  0  0  0  0  0
    6.8491   -4.1429   22.0496 C   0  0  0  0  0  0  0  0  0  0  0  0
    6.3989   -3.4377   23.3436 C   0  0  0  0  0  0  0  0  0  0  0  0
    6.3656   -3.0816   19.8691 C   0  0  0  0  0  0  0  0  0  0  0  0
    6.4136   -1.8095   19.0216 C   0  0  0  0  0  0  0  0  0  0  0  0
    8.2234   -5.6373   27.7400 C   0  0  0  0  0  0  0  0  0  0  0  0
    9.1575   -5.2165   26.7755 C   0  0  0  0  0  0  0  0  0  0  0  0
    8.9302   -4.0433   26.0256 C   0  0  0  0  0  0  0  0  0  0  0  0
    9.9325   -3.6634   24.9454 C   0  0  0  0  0  0  0  0  0  0  0  0
    7.7601   -3.2824   26.2839 C   0  0  0  0  0  0  0  0  0  0  0  0
    6.8285   -3.7104   27.2531 C   0  0  0  0  0  0  0  0  0  0  0  0
    7.7262   -1.4394   22.6440 C   0  0  0  0  0  0  0  0  0  0  0  0
    8.1443   -2.2153   21.3893 C   0  0  0  0  0  0  0  0  0  0  0  0
    7.0751   -3.1365   21.0130 N   0  0  0  0  0  0  0  0  0  0  0  0
    5.9962   -1.3617   25.6760 O   0  0  0  0  0  0  0  0  0  0  0  0
    5.6588   -4.0124   19.4930 O   0  0  0  0  0  0  0  0  0  0  0  0
    7.3643   -1.7961   25.3538 S   0  0  0  0  0  0  0  0  0  0  0  0
    5.2529   -4.6541   29.1577 H   0  0  0  0  0  0  0  0  0  0  0  0
    5.5963   -6.3172   28.6672 H   0  0  0  0  0  0  0  0  0  0  0  0
    6.5366   -5.5632   29.9601 H   0  0  0  0  0  0  0  0  0  0  0  0
    6.1091   -4.8915   21.7619 H   0  0  0  0  0  0  0  0  0  0  0  0
    7.7775   -4.6838   22.2136 H   0  0  0  0  0  0  0  0  0  0  0  0
    5.4075   -3.0031   23.2162 H   0  0  0  0  0  0  0  0  0  0  0  0
    6.3220   -4.1702   24.1473 H   0  0  0  0  0  0  0  0  0  0  0  0
    5.7390   -1.8895   18.1729 H   0  0  0  0  0  0  0  0  0  0  0  0
    6.1125   -0.9437   19.6124 H   0  0  0  0  0  0  0  0  0  0  0  0
    7.4079   -1.6232   18.6193 H   0  0  0  0  0  0  0  0  0  0  0  0
    8.3977   -6.5411   28.2988 H   0  0  0  0  0  0  0  0  0  0  0  0
   10.0403   -5.8142   26.5980 H   0  0  0  0  0  0  0  0  0  0  0  0
   10.2054   -2.6122   24.9888 H   0  0  0  0  0  0  0  0  0  0  0  0
   10.8449   -4.2513   25.0374 H   0  0  0  0  0  0  0  0  0  0  0  0
    9.5260   -3.8515   23.9544 H   0  0  0  0  0  0  0  0  0  0  0  0
    5.9304   -3.1400   27.4369 H   0  0  0  0  0  0  0  0  0  0  0  0
    8.5452   -0.7991   22.9711 H   0  0  0  0  0  0  0  0  0  0  0  0
    6.8824   -0.7827   22.4273 H   0  0  0  0  0  0  0  0  0  0  0  0
    9.0438   -2.7979   21.5908 H   0  0  0  0  0  0  0  0  0  0  0  0
    8.4219   -1.5149   20.6026 H   0  0  0  0  0  0  0  0  0  0  0  0
  1  6  1  0  0  0  0
  1 15  1  0  0  0  0
  1 20  1  0  0  0  0
  2  4  1  0  0  0  0
  2 21  1  0  0  0  0
  2 22  1  0  0  0  0
  2 23  1  0  0  0  0
  3 20  2  0  0  0  0
  4  9  2  0  0  0  0
  4 14  1  0  0  0  0
  5  6  1  0  0  0  0
  5 17  1  0  0  0  0
  5 24  1  0  0  0  0
  5 25  1  0  0  0  0
  6 26  1  0  0  0  0
  6 27  1  0  0  0  0
  7  8  1  0  0  0  0
  7 17  1  0  0  0  0
  7 19  2  0  0  0  0
  8 28  1  0  0  0  0
  8 29  1  0  0  0  0
  8 30  1  0  0  0  0
  9 10  1  0  0  0  0
  9 31  1  0  0  0  0
 10 11  2  0  0  0  0
 10 32  1  0  0  0  0
 11 12  1  0  0  0  0
 11 13  1  0  0  0  0
 12 33  1  0  0  0  0
 12 34  1  0  0  0  0
 12 35  1  0  0  0  0
 13 14  2  0  0  0  0
 13 20  1  0  0  0  0
 14 36  1  0  0  0  0
 15 16  1  0  0  0  0
 15 37  1  0  0  0  0
 15 38  1  0  0  0  0
 16 17  1  0  0  0  0
 16 39  1  0  0  0  0
 16 40  1  0  0  0  0
 18 20  2  0  0  0  0
M  END
$$$$
