Mpro-x11764_ligand
 OpenBabel04052409413D

 47 49  0  0  1  0  0  0  0  0999 V2000
   13.3243    0.8122   23.5627 Cl  0  0  0  0  0  0  0  0  0  0  0  0
   11.7247    0.2482   23.8262 C   0  0  0  0  0  0  0  0  0  0  0  0
   11.0684   -0.4564   22.8072 C   0  0  0  0  0  0  0  0  0  0  0  0
   11.0843    0.4710   25.0574 C   0  0  0  0  0  0  0  0  0  0  0  0
    9.7876   -0.0231   25.2967 C   0  0  0  0  0  0  0  0  0  0  0  0
    9.2191    0.2124   26.5566 N   0  0  0  0  0  0  0  0  0  0  0  0
    7.8345   -0.1156   26.8705 C   0  0  2  0  0  0  0  0  0  0  0  0
    6.8382    0.9757   26.4501 C   0  0  1  0  0  0  0  0  0  0  0  0
    6.4501    0.8757   25.0938 O   0  0  0  0  0  0  0  0  0  0  0  0
    5.6200    0.7344   27.3508 C   0  0  0  0  0  0  0  0  0  0  0  0
    6.1598    0.1130   28.6459 C   0  0  0  0  0  0  0  0  0  0  0  0
    7.6358   -0.2077   28.3871 C   0  0  0  0  0  0  0  0  0  0  0  0
    9.1295   -0.7329   24.2665 C   0  0  0  0  0  0  0  0  0  0  0  0
    9.7628   -0.9323   23.0228 C   0  0  0  0  0  0  0  0  0  0  0  0
    9.0211   -1.6066   21.8925 C   0  0  0  0  0  0  0  0  0  0  0  0
    8.3136   -0.5508   21.0399 C   0  0  0  0  0  0  0  0  0  0  0  0
    8.8543    0.5315   20.8003 O   0  0  0  0  0  0  0  0  0  0  0  0
    7.0817   -0.8533   20.6134 N   0  0  0  0  0  0  0  0  0  0  0  0
    6.3770   -0.0621   19.6850 C   0  0  0  0  0  0  0  0  0  0  0  0
    5.2827    0.7435   20.0688 C   0  0  0  0  0  0  0  0  0  0  0  0
    4.8059    0.7989   21.5063 C   0  0  0  0  0  0  0  0  0  0  0  0
    6.7786   -0.0611   18.3360 C   0  0  0  0  0  0  0  0  0  0  0  0
    6.1776    0.6825   17.3876 N   0  0  0  0  0  0  0  0  0  0  0  0
    5.1481    1.4676   17.7618 C   0  0  0  0  0  0  0  0  0  0  0  0
    4.6603    1.5315   19.0803 C   0  0  0  0  0  0  0  0  0  0  0  0
   11.5558   -0.6105   21.8551 H   0  0  0  0  0  0  0  0  0  0  0  0
   11.5950    1.0220   25.8250 H   0  0  0  0  0  0  0  0  0  0  0  0
    9.7466    0.7344   27.2467 H   0  0  0  0  0  0  0  0  0  0  0  0
    7.5493   -1.0778   26.4448 H   0  0  0  0  0  0  0  0  0  0  0  0
    7.2530    1.9656   26.6477 H   0  0  0  0  0  0  0  0  0  0  0  0
    6.0452    0.0319   24.9616 H   0  0  0  0  0  0  0  0  0  0  0  0
    4.9360    0.0245   26.8824 H   0  0  0  0  0  0  0  0  0  0  0  0
    5.0587    1.6515   27.5317 H   0  0  0  0  0  0  0  0  0  0  0  0
    5.6025   -0.7912   28.8930 H   0  0  0  0  0  0  0  0  0  0  0  0
    6.0585    0.7984   29.4881 H   0  0  0  0  0  0  0  0  0  0  0  0
    8.2475    0.5367   28.8985 H   0  0  0  0  0  0  0  0  0  0  0  0
    7.9259   -1.1835   28.7753 H   0  0  0  0  0  0  0  0  0  0  0  0
    8.1308   -1.1174   24.4009 H   0  0  0  0  0  0  0  0  0  0  0  0
    8.3125   -2.3270   22.2980 H   0  0  0  0  0  0  0  0  0  0  0  0
    9.7190   -2.1660   21.2702 H   0  0  0  0  0  0  0  0  0  0  0  0
    6.6411   -1.7026   20.9446 H   0  0  0  0  0  0  0  0  0  0  0  0
    3.8748    1.3592   21.5919 H   0  0  0  0  0  0  0  0  0  0  0  0
    4.6332   -0.2054   21.8904 H   0  0  0  0  0  0  0  0  0  0  0  0
    5.5551    1.2825   22.1335 H   0  0  0  0  0  0  0  0  0  0  0  0
    7.6159   -0.6630   18.0148 H   0  0  0  0  0  0  0  0  0  0  0  0
    4.7243    2.0871   16.9889 H   0  0  0  0  0  0  0  0  0  0  0  0
    3.8387    2.1892   19.3230 H   0  0  0  0  0  0  0  0  0  0  0  0
  1  2  1  0  0  0  0
  2  3  2  0  0  0  0
  2  4  1  0  0  0  0
  3 14  1  0  0  0  0
  3 26  1  0  0  0  0
  4  5  2  0  0  0  0
  4 27  1  0  0  0  0
  5  6  1  0  0  0  0
  5 13  1  0  0  0  0
  6  7  1  0  0  0  0
  6 28  1  0  0  0  0
  7  8  1  0  0  0  0
  7 12  1  0  0  0  0
  7 29  1  6  0  0  0
  8  9  1  0  0  0  0
  8 10  1  0  0  0  0
  8 30  1  1  0  0  0
  9 31  1  0  0  0  0
 10 11  1  0  0  0  0
 10 32  1  0  0  0  0
 10 33  1  0  0  0  0
 11 12  1  0  0  0  0
 11 34  1  0  0  0  0
 11 35  1  0  0  0  0
 12 36  1  0  0  0  0
 12 37  1  0  0  0  0
 13 14  2  0  0  0  0
 13 38  1  0  0  0  0
 14 15  1  0  0  0  0
 15 16  1  0  0  0  0
 15 39  1  0  0  0  0
 15 40  1  0  0  0  0
 16 17  2  0  0  0  0
 16 18  1  0  0  0  0
 18 19  1  0  0  0  0
 18 41  1  0  0  0  0
 19 20  2  0  0  0  0
 19 22  1  0  0  0  0
 20 21  1  0  0  0  0
 20 25  1  0  0  0  0
 21 42  1  0  0  0  0
 21 43  1  0  0  0  0
 21 44  1  0  0  0  0
 22 23  2  0  0  0  0
 22 45  1  0  0  0  0
 23 24  1  0  0  0  0
 24 25  2  0  0  0  0
 24 46  1  0  0  0  0
 25 47  1  0  0  0  0
M  END
$$$$
