Mpro-x11313_ligand
 OpenBabel04052409413D

 46 48  0  0  0  0  0  0  0  0999 V2000
    6.2332    1.1291   16.7704 O   0  0  0  0  0  0  0  0  0  0  0  0
    5.7069    0.8619   17.8423 C   0  0  0  0  0  0  0  0  0  0  0  0
    6.1498   -0.2090   18.7232 C   0  0  0  0  0  0  0  0  0  0  0  0
    4.6621    1.5797   18.2752 N   0  0  0  0  0  0  0  0  0  0  0  0
    4.0510    1.4546   19.5400 C   0  0  0  0  0  0  0  0  0  0  0  0
    4.5295    0.5007   20.4741 C   0  0  0  0  0  0  0  0  0  0  0  0
    3.9591    0.5180   21.7859 C   0  0  0  0  0  0  0  0  0  0  0  0
    4.4794   -0.3068   22.9508 C   0  0  0  0  0  0  0  0  0  0  0  0
    2.8724    1.3767   22.0643 C   0  0  0  0  0  0  0  0  0  0  0  0
    2.3780    2.2638   21.0970 C   0  0  0  0  0  0  0  0  0  0  0  0
    2.9864    2.3198   19.8350 C   0  0  0  0  0  0  0  0  0  0  0  0
    5.6174   -0.3841   19.9535 C   0  0  0  0  0  0  0  0  0  0  0  0
    5.9463   -1.6173   20.6422 C   0  0  0  0  0  0  0  0  0  0  0  0
    5.2346   -2.6210   20.6569 O   0  0  0  0  0  0  0  0  0  0  0  0
    7.1132   -1.5393   21.2943 N   0  0  0  0  0  0  0  0  0  0  0  0
    7.6333   -2.5756   22.1772 C   0  0  0  0  0  0  0  0  0  0  0  0
    9.1516   -2.4673   22.2831 C   0  0  0  0  0  0  0  0  0  0  0  0
    9.4818   -1.2184   22.8701 O   0  0  0  0  0  0  0  0  0  0  0  0
   10.7976   -0.8132   22.8198 C   0  0  0  0  0  0  0  0  0  0  0  0
   11.0675    0.5230   23.1888 C   0  0  0  0  0  0  0  0  0  0  0  0
    9.9929    1.2990   23.5673 O   0  0  0  0  0  0  0  0  0  0  0  0
   10.2153    2.6810   23.7931 C   0  0  0  0  0  0  0  0  0  0  0  0
   11.8570   -1.6570   22.4084 C   0  0  0  0  0  0  0  0  0  0  0  0
   13.1733   -1.1718   22.3418 C   0  0  0  0  0  0  0  0  0  0  0  0
   13.4408    0.1536   22.7164 C   0  0  0  0  0  0  0  0  0  0  0  0
   12.4008    0.9985   23.1377 C   0  0  0  0  0  0  0  0  0  0  0  0
    6.8767   -0.9121   18.3408 H   0  0  0  0  0  0  0  0  0  0  0  0
    4.3323    2.3322   17.6826 H   0  0  0  0  0  0  0  0  0  0  0  0
    4.0043   -0.0187   23.8883 H   0  0  0  0  0  0  0  0  0  0  0  0
    4.2862   -1.3646   22.8058 H   0  0  0  0  0  0  0  0  0  0  0  0
    5.5508   -0.1570   23.0749 H   0  0  0  0  0  0  0  0  0  0  0  0
    2.4172    1.3711   23.0434 H   0  0  0  0  0  0  0  0  0  0  0  0
    1.5538    2.9217   21.3313 H   0  0  0  0  0  0  0  0  0  0  0  0
    2.6352    3.0265   19.0972 H   0  0  0  0  0  0  0  0  0  0  0  0
    7.6431   -0.6791   21.2255 H   0  0  0  0  0  0  0  0  0  0  0  0
    7.3746   -3.5661   21.7995 H   0  0  0  0  0  0  0  0  0  0  0  0
    7.1751   -2.4754   23.1618 H   0  0  0  0  0  0  0  0  0  0  0  0
    9.5826   -2.5587   21.2854 H   0  0  0  0  0  0  0  0  0  0  0  0
    9.5404   -3.2786   22.9002 H   0  0  0  0  0  0  0  0  0  0  0  0
    9.2713    3.1662   24.0384 H   0  0  0  0  0  0  0  0  0  0  0  0
   10.8952    2.8395   24.6279 H   0  0  0  0  0  0  0  0  0  0  0  0
   10.6158    3.1683   22.9022 H   0  0  0  0  0  0  0  0  0  0  0  0
   11.6838   -2.6832   22.1313 H   0  0  0  0  0  0  0  0  0  0  0  0
   13.9727   -1.8173   22.0114 H   0  0  0  0  0  0  0  0  0  0  0  0
   14.4447    0.5376   22.6560 H   0  0  0  0  0  0  0  0  0  0  0  0
   12.6521    2.0148   23.3985 H   0  0  0  0  0  0  0  0  0  0  0  0
  1  2  2  0  0  0  0
  2  3  1  0  0  0  0
  2  4  1  0  0  0  0
  3 12  2  0  0  0  0
  3 27  1  0  0  0  0
  4  5  1  0  0  0  0
  4 28  1  0  0  0  0
  5  6  2  0  0  0  0
  5 11  1  0  0  0  0
  6  7  1  0  0  0  0
  6 12  1  0  0  0  0
  7  8  1  0  0  0  0
  7  9  2  0  0  0  0
  8 29  1  0  0  0  0
  8 30  1  0  0  0  0
  8 31  1  0  0  0  0
  9 10  1  0  0  0  0
  9 32  1  0  0  0  0
 10 11  2  0  0  0  0
 10 33  1  0  0  0  0
 11 34  1  0  0  0  0
 12 13  1  0  0  0  0
 13 14  2  0  0  0  0
 13 15  1  0  0  0  0
 15 16  1  0  0  0  0
 15 35  1  0  0  0  0
 16 17  1  0  0  0  0
 16 36  1  0  0  0  0
 16 37  1  0  0  0  0
 17 18  1  0  0  0  0
 17 38  1  0  0  0  0
 17 39  1  0  0  0  0
 18 19  1  0  0  0  0
 19 20  2  0  0  0  0
 19 23  1  0  0  0  0
 20 21  1  0  0  0  0
 20 26  1  0  0  0  0
 21 22  1  0  0  0  0
 22 40  1  0  0  0  0
 22 41  1  0  0  0  0
 22 42  1  0  0  0  0
 23 24  2  0  0  0  0
 23 43  1  0  0  0  0
 24 25  1  0  0  0  0
 24 44  1  0  0  0  0
 25 26  2  0  0  0  0
 25 45  1  0  0  0  0
 26 46  1  0  0  0  0
M  END
$$$$
