Mpro-x12300_ligand
 OpenBabel04052409413D

 46 47  0  0  0  0  0  0  0  0999 V2000
    6.1349    1.3441   24.5988 N   0  0  0  0  0  0  0  0  0  0  0  0
    6.0834    0.7185   25.5707 C   0  0  0  0  0  0  0  0  0  0  0  0
    6.0161   -0.0700   26.8124 C   0  0  0  0  0  0  0  0  0  0  0  0
    4.7462   -0.9361   26.7734 C   0  0  0  0  0  0  0  0  0  0  0  0
    5.9270    0.8993   28.0043 C   0  0  0  0  0  0  0  0  0  0  0  0
    7.2478   -0.9939   26.9655 C   0  0  0  0  0  0  0  0  0  0  0  0
    8.5233   -0.3039   26.8039 N   0  0  0  0  0  0  0  0  0  0  0  0
    9.2402   -0.3055   25.5974 C   0  0  0  0  0  0  0  0  0  0  0  0
   10.4814    0.3619   25.5646 C   0  0  0  0  0  0  0  0  0  0  0  0
   11.2468    0.3905   24.3841 C   0  0  0  0  0  0  0  0  0  0  0  0
   12.7587    1.2014   24.3424 Cl  0  0  0  0  0  0  0  0  0  0  0  0
   10.7849   -0.2509   23.2262 C   0  0  0  0  0  0  0  0  0  0  0  0
    8.7735   -0.9391   24.4219 C   0  0  0  0  0  0  0  0  0  0  0  0
    9.5430   -0.9112   23.2422 C   0  0  0  0  0  0  0  0  0  0  0  0
    9.0106   -1.5445   21.9760 C   0  0  0  0  0  0  0  0  0  0  0  0
    8.2754   -0.4888   21.1519 C   0  0  0  0  0  0  0  0  0  0  0  0
    8.7941    0.6103   20.9419 O   0  0  0  0  0  0  0  0  0  0  0  0
    7.0502   -0.8078   20.7149 N   0  0  0  0  0  0  0  0  0  0  0  0
    6.3557   -0.0252   19.7698 C   0  0  0  0  0  0  0  0  0  0  0  0
    5.2881    0.8282   20.1301 C   0  0  0  0  0  0  0  0  0  0  0  0
    4.8072    0.9597   21.5589 C   0  0  0  0  0  0  0  0  0  0  0  0
    6.7494   -0.0768   18.4196 C   0  0  0  0  0  0  0  0  0  0  0  0
    6.1702    0.6583   17.4510 N   0  0  0  0  0  0  0  0  0  0  0  0
    5.1628    1.4806   17.8016 C   0  0  0  0  0  0  0  0  0  0  0  0
    4.6862    1.6026   19.1195 C   0  0  0  0  0  0  0  0  0  0  0  0
    4.6373   -1.5224   27.6865 H   0  0  0  0  0  0  0  0  0  0  0  0
    3.8507   -0.3233   26.6624 H   0  0  0  0  0  0  0  0  0  0  0  0
    4.7701   -1.6330   25.9348 H   0  0  0  0  0  0  0  0  0  0  0  0
    5.8744    0.3624   28.9522 H   0  0  0  0  0  0  0  0  0  0  0  0
    6.7934    1.5604   28.0452 H   0  0  0  0  0  0  0  0  0  0  0  0
    5.0414    1.5316   27.9327 H   0  0  0  0  0  0  0  0  0  0  0  0
    7.1777   -1.8536   26.3019 H   0  0  0  0  0  0  0  0  0  0  0  0
    7.2480   -1.4200   27.9675 H   0  0  0  0  0  0  0  0  0  0  0  0
    8.9228    0.1404   27.6201 H   0  0  0  0  0  0  0  0  0  0  0  0
   10.8556    0.8510   26.4486 H   0  0  0  0  0  0  0  0  0  0  0  0
   11.3741   -0.2188   22.3220 H   0  0  0  0  0  0  0  0  0  0  0  0
    7.8176   -1.4378   24.3907 H   0  0  0  0  0  0  0  0  0  0  0  0
    8.3486   -2.3767   22.2212 H   0  0  0  0  0  0  0  0  0  0  0  0
    9.8334   -1.9529   21.3887 H   0  0  0  0  0  0  0  0  0  0  0  0
    6.6354   -1.6839   20.9987 H   0  0  0  0  0  0  0  0  0  0  0  0
    3.7504    1.2236   21.5866 H   0  0  0  0  0  0  0  0  0  0  0  0
    4.9383    0.0348   22.1192 H   0  0  0  0  0  0  0  0  0  0  0  0
    5.3649    1.7502   22.0564 H   0  0  0  0  0  0  0  0  0  0  0  0
    7.5665   -0.7118   18.1108 H   0  0  0  0  0  0  0  0  0  0  0  0
    4.7387    2.0726   17.0069 H   0  0  0  0  0  0  0  0  0  0  0  0
    3.8820    2.2868   19.3436 H   0  0  0  0  0  0  0  0  0  0  0  0
  1  2  3  0  0  0  0
  2  3  1  0  0  0  0
  3  4  1  0  0  0  0
  3  5  1  0  0  0  0
  3  6  1  0  0  0  0
  4 26  1  0  0  0  0
  4 27  1  0  0  0  0
  4 28  1  0  0  0  0
  5 29  1  0  0  0  0
  5 30  1  0  0  0  0
  5 31  1  0  0  0  0
  6  7  1  0  0  0  0
  6 32  1  0  0  0  0
  6 33  1  0  0  0  0
  7  8  1  0  0  0  0
  7 34  1  0  0  0  0
  8  9  2  0  0  0  0
  8 13  1  0  0  0  0
  9 10  1  0  0  0  0
  9 35  1  0  0  0  0
 10 11  1  0  0  0  0
 10 12  2  0  0  0  0
 12 14  1  0  0  0  0
 12 36  1  0  0  0  0
 13 14  2  0  0  0  0
 13 37  1  0  0  0  0
 14 15  1  0  0  0  0
 15 16  1  0  0  0  0
 15 38  1  0  0  0  0
 15 39  1  0  0  0  0
 16 17  2  0  0  0  0
 16 18  1  0  0  0  0
 18 19  1  0  0  0  0
 18 40  1  0  0  0  0
 19 20  2  0  0  0  0
 19 22  1  0  0  0  0
 20 21  1  0  0  0  0
 20 25  1  0  0  0  0
 21 41  1  0  0  0  0
 21 42  1  0  0  0  0
 21 43  1  0  0  0  0
 22 23  2  0  0  0  0
 22 44  1  0  0  0  0
 23 24  1  0  0  0  0
 24 25  2  0  0  0  0
 24 45  1  0  0  0  0
 25 46  1  0  0  0  0
M  END
$$$$
