Mpro-x10876_ligand
 OpenBabel04052409413D

 49 52  0  0  0  0  0  0  0  0999 V2000
    8.8934    1.5484   21.0915 O   0  0  0  0  0  0  0  0  0  0  0  0
    8.6874    0.4997   21.7080 C   0  0  0  0  0  0  0  0  0  0  0  0
    9.1109    0.3294   22.9884 N   0  0  0  0  0  0  0  0  0  0  0  0
    9.6803    1.4796   23.7156 C   0  0  0  0  0  0  0  0  0  0  0  0
   11.1293    1.6638   23.3846 C   0  0  0  0  0  0  0  0  0  0  0  0
   11.7061    2.8517   22.8435 C   0  0  0  0  0  0  0  0  0  0  0  0
   13.0384    2.7119   22.5547 C   0  0  0  0  0  0  0  0  0  0  0  0
   13.6149    1.1160   22.9365 S   0  0  0  0  0  0  0  0  0  0  0  0
   12.0522    0.6640   23.5370 C   0  0  0  0  0  0  0  0  0  0  0  0
    9.0712   -0.9299   23.6569 C   0  0  0  0  0  0  0  0  0  0  0  0
    8.4666   -1.0422   24.9266 C   0  0  0  0  0  0  0  0  0  0  0  0
    8.4281   -2.2795   25.5929 C   0  0  0  0  0  0  0  0  0  0  0  0
    9.6746   -2.0699   23.0830 C   0  0  0  0  0  0  0  0  0  0  0  0
    9.6303   -3.3052   23.7489 C   0  0  0  0  0  0  0  0  0  0  0  0
    8.9971   -3.4350   25.0087 C   0  0  0  0  0  0  0  0  0  0  0  0
    8.9453   -4.6770   25.6729 N   0  0  0  0  0  0  0  0  0  0  0  0
    7.9461   -4.9117   26.7056 C   0  0  0  0  0  0  0  0  0  0  0  0
    9.6829   -5.8014   25.1286 C   0  0  0  0  0  0  0  0  0  0  0  0
    7.9238   -0.6354   20.9927 C   0  0  0  0  0  0  0  0  0  0  0  0
    7.0700   -0.1127   19.9427 N   0  0  0  0  0  0  0  0  0  0  0  0
    5.8845    0.5816   20.0669 C   0  0  0  0  0  0  0  0  0  0  0  0
    5.0439    0.9642   21.1228 C   0  0  0  0  0  0  0  0  0  0  0  0
    3.9272    1.7719   20.8375 C   0  0  0  0  0  0  0  0  0  0  0  0
    3.6798    2.1880   19.5125 C   0  0  0  0  0  0  0  0  0  0  0  0
    4.5269    1.7797   18.4629 C   0  0  0  0  0  0  0  0  0  0  0  0
    5.6351    0.9527   18.7304 C   0  0  0  0  0  0  0  0  0  0  0  0
    6.6048    0.4249   17.9039 N   0  0  0  0  0  0  0  0  0  0  0  0
    7.4571   -0.2166   18.6424 N   0  0  0  0  0  0  0  0  0  0  0  0
    9.5780    1.3486   24.7926 H   0  0  0  0  0  0  0  0  0  0  0  0
    9.1177    2.3890   23.4994 H   0  0  0  0  0  0  0  0  0  0  0  0
   11.1278    3.7439   22.6545 H   0  0  0  0  0  0  0  0  0  0  0  0
   13.7088    3.4316   22.1105 H   0  0  0  0  0  0  0  0  0  0  0  0
   11.8829   -0.3247   23.9289 H   0  0  0  0  0  0  0  0  0  0  0  0
    8.0134   -0.1836   25.3984 H   0  0  0  0  0  0  0  0  0  0  0  0
    7.9541   -2.3199   26.5622 H   0  0  0  0  0  0  0  0  0  0  0  0
   10.1789   -2.0073   22.1293 H   0  0  0  0  0  0  0  0  0  0  0  0
   10.0936   -4.1478   23.2652 H   0  0  0  0  0  0  0  0  0  0  0  0
    7.8967   -5.9657   26.9800 H   0  0  0  0  0  0  0  0  0  0  0  0
    8.1914   -4.3493   27.6034 H   0  0  0  0  0  0  0  0  0  0  0  0
    6.9562   -4.6084   26.3626 H   0  0  0  0  0  0  0  0  0  0  0  0
    9.6341   -6.6540   25.7998 H   0  0  0  0  0  0  0  0  0  0  0  0
    9.2834   -6.1073   24.1609 H   0  0  0  0  0  0  0  0  0  0  0  0
   10.7327   -5.5332   25.0137 H   0  0  0  0  0  0  0  0  0  0  0  0
    7.2921   -1.1876   21.6891 H   0  0  0  0  0  0  0  0  0  0  0  0
    8.6374   -1.3360   20.5593 H   0  0  0  0  0  0  0  0  0  0  0  0
    5.2570    0.6523   22.1321 H   0  0  0  0  0  0  0  0  0  0  0  0
    3.2677    2.0881   21.6307 H   0  0  0  0  0  0  0  0  0  0  0  0
    2.8368    2.8240   19.2947 H   0  0  0  0  0  0  0  0  0  0  0  0
    4.3404    2.1115   17.4542 H   0  0  0  0  0  0  0  0  0  0  0  0
  1  2  2  0  0  0  0
  2  3  1  0  0  0  0
  2 19  1  0  0  0  0
  3  4  1  0  0  0  0
  3 10  1  0  0  0  0
  4  5  1  0  0  0  0
  4 29  1  0  0  0  0
  4 30  1  0  0  0  0
  5  6  1  0  0  0  0
  5  9  2  0  0  0  0
  6  7  2  0  0  0  0
  6 31  1  0  0  0  0
  7  8  1  0  0  0  0
  7 32  1  0  0  0  0
  8  9  1  0  0  0  0
  9 33  1  0  0  0  0
 10 11  2  0  0  0  0
 10 13  1  0  0  0  0
 11 12  1  0  0  0  0
 11 34  1  0  0  0  0
 12 15  2  0  0  0  0
 12 35  1  0  0  0  0
 13 14  2  0  0  0  0
 13 36  1  0  0  0  0
 14 15  1  0  0  0  0
 14 37  1  0  0  0  0
 15 16  1  0  0  0  0
 16 17  1  0  0  0  0
 16 18  1  0  0  0  0
 17 38  1  0  0  0  0
 17 39  1  0  0  0  0
 17 40  1  0  0  0  0
 18 41  1  0  0  0  0
 18 42  1  0  0  0  0
 18 43  1  0  0  0  0
 19 20  1  0  0  0  0
 19 44  1  0  0  0  0
 19 45  1  0  0  0  0
 20 21  1  0  0  0  0
 20 28  1  0  0  0  0
 21 22  2  0  0  0  0
 21 26  1  0  0  0  0
 22 23  1  0  0  0  0
 22 46  1  0  0  0  0
 23 24  2  0  0  0  0
 23 47  1  0  0  0  0
 24 25  1  0  0  0  0
 24 48  1  0  0  0  0
 25 26  2  0  0  0  0
 25 49  1  0  0  0  0
 26 27  1  0  0  0  0
 27 28  2  0  0  0  0
M  END
$$$$
