Mpro-x11530_ligand
 OpenBabel04052409413D

 33 35  0  0  0  0  0  0  0  0999 V2000
    8.8623    0.8588   21.0565 O   0  0  0  0  0  0  0  0  0  0  0  0
    8.3330   -0.1936   21.4240 C   0  0  0  0  0  0  0  0  0  0  0  0
    8.8973   -0.9954   22.6036 C   0  0  0  0  0  0  0  0  0  0  0  0
   10.3719   -0.7157   22.7941 C   0  0  0  0  0  0  0  0  0  0  0  0
   10.8062    0.3039   23.6641 C   0  0  0  0  0  0  0  0  0  0  0  0
   12.1762    0.6137   23.7556 C   0  0  0  0  0  0  0  0  0  0  0  0
   13.1100   -0.0913   22.9707 C   0  0  0  0  0  0  0  0  0  0  0  0
   11.3122   -1.4495   22.0517 C   0  0  0  0  0  0  0  0  0  0  0  0
   12.6751   -1.1216   22.1150 C   0  0  0  0  0  0  0  0  0  0  0  0
   13.7928   -1.9757   21.1247 Cl  0  0  0  0  0  0  0  0  0  0  0  0
    7.2366   -0.6985   20.8427 N   0  0  0  0  0  0  0  0  0  0  0  0
    6.5012   -0.0246   19.8438 C   0  0  0  0  0  0  0  0  0  0  0  0
    5.3345    0.7031   20.1710 C   0  0  0  0  0  0  0  0  0  0  0  0
    4.8629    0.7573   21.4393 N   0  0  0  0  0  0  0  0  0  0  0  0
    3.7631    1.4967   21.6912 C   0  0  0  0  0  0  0  0  0  0  0  0
    3.0753    2.2249   20.7042 C   0  0  0  0  0  0  0  0  0  0  0  0
    3.5531    2.1762   19.3835 C   0  0  0  0  0  0  0  0  0  0  0  0
    4.6887    1.3910   19.1124 C   0  0  0  0  0  0  0  0  0  0  0  0
    5.1972    1.2820   17.8061 C   0  0  0  0  0  0  0  0  0  0  0  0
    6.2892    0.5584   17.5024 N   0  0  0  0  0  0  0  0  0  0  0  0
    6.9316   -0.0712   18.5046 C   0  0  0  0  0  0  0  0  0  0  0  0
    8.7552   -2.0639   22.4359 H   0  0  0  0  0  0  0  0  0  0  0  0
    8.3546   -0.7364   23.5111 H   0  0  0  0  0  0  0  0  0  0  0  0
   10.0828    0.8653   24.2349 H   0  0  0  0  0  0  0  0  0  0  0  0
   12.5086    1.4071   24.4064 H   0  0  0  0  0  0  0  0  0  0  0  0
   14.1565    0.1627   23.0183 H   0  0  0  0  0  0  0  0  0  0  0  0
   10.9781   -2.2472   21.4090 H   0  0  0  0  0  0  0  0  0  0  0  0
    6.8105   -1.5164   21.2623 H   0  0  0  0  0  0  0  0  0  0  0  0
    3.4211    1.5085   22.7149 H   0  0  0  0  0  0  0  0  0  0  0  0
    2.2025    2.8104   20.9534 H   0  0  0  0  0  0  0  0  0  0  0  0
    3.0544    2.7282   18.5984 H   0  0  0  0  0  0  0  0  0  0  0  0
    4.7327    1.8034   16.9845 H   0  0  0  0  0  0  0  0  0  0  0  0
    7.8206   -0.6211   18.2326 H   0  0  0  0  0  0  0  0  0  0  0  0
  1  2  2  0  0  0  0
  2  3  1  0  0  0  0
  2 11  1  0  0  0  0
  3  4  1  0  0  0  0
  3 22  1  0  0  0  0
  3 23  1  0  0  0  0
  4  5  2  0  0  0  0
  4  8  1  0  0  0  0
  5  6  1  0  0  0  0
  5 24  1  0  0  0  0
  6  7  2  0  0  0  0
  6 25  1  0  0  0  0
  7  9  1  0  0  0  0
  7 26  1  0  0  0  0
  8  9  2  0  0  0  0
  8 27  1  0  0  0  0
  9 10  1  0  0  0  0
 11 12  1  0  0  0  0
 11 28  1  0  0  0  0
 12 13  2  0  0  0  0
 12 21  1  0  0  0  0
 13 14  1  0  0  0  0
 13 18  1  0  0  0  0
 14 15  2  0  0  0  0
 15 16  1  0  0  0  0
 15 29  1  0  0  0  0
 16 17  2  0  0  0  0
 16 30  1  0  0  0  0
 17 18  1  0  0  0  0
 17 31  1  0  0  0  0
 18 19  2  0  0  0  0
 19 20  1  0  0  0  0
 19 32  1  0  0  0  0
 20 21  2  0  0  0  0
 21 33  1  0  0  0  0
M  END
$$$$
