Mpro-x11501_ligand
 OpenBabel04052409413D

 37 39  0  0  0  0  0  0  0  0999 V2000
   13.8057   -1.8627   21.1742 Cl  0  0  0  0  0  0  0  0  0  0  0  0
   12.6456   -1.0120   22.1156 C   0  0  0  0  0  0  0  0  0  0  0  0
   13.0282    0.0803   22.9156 C   0  0  0  0  0  0  0  0  0  0  0  0
   12.0564    0.7838   23.6516 C   0  0  0  0  0  0  0  0  0  0  0  0
   10.7022    0.4055   23.5771 C   0  0  0  0  0  0  0  0  0  0  0  0
   11.3011   -1.4113   22.0690 C   0  0  0  0  0  0  0  0  0  0  0  0
   10.3234   -0.6883   22.7740 C   0  0  0  0  0  0  0  0  0  0  0  0
    8.8660   -1.0723   22.6206 C   0  0  0  0  0  0  0  0  0  0  0  0
    8.2110   -0.3317   21.4366 C   0  0  0  0  0  0  0  0  0  0  0  0
    8.7564    0.6730   20.9693 O   0  0  0  0  0  0  0  0  0  0  0  0
    7.0378   -0.7978   20.9495 N   0  0  0  0  0  0  0  0  0  0  0  0
    6.3759   -1.9743   21.5116 C   0  0  0  0  0  0  0  0  0  0  0  0
    6.3583   -0.0882   19.9230 C   0  0  0  0  0  0  0  0  0  0  0  0
    5.2315    0.7267   20.1910 C   0  0  0  0  0  0  0  0  0  0  0  0
    4.7032    0.8891   21.4907 C   0  0  0  0  0  0  0  0  0  0  0  0
    3.5868    1.7197   21.7007 C   0  0  0  0  0  0  0  0  0  0  0  0
    2.9940    2.3976   20.6211 C   0  0  0  0  0  0  0  0  0  0  0  0
    3.5166    2.2517   19.3232 C   0  0  0  0  0  0  0  0  0  0  0  0
    4.6276    1.4138   19.1095 C   0  0  0  0  0  0  0  0  0  0  0  0
    5.1620    1.2435   17.8197 C   0  0  0  0  0  0  0  0  0  0  0  0
    6.2333    0.4698   17.5629 N   0  0  0  0  0  0  0  0  0  0  0  0
    6.8193   -0.1720   18.5939 C   0  0  0  0  0  0  0  0  0  0  0  0
   14.0614    0.3882   22.9530 H   0  0  0  0  0  0  0  0  0  0  0  0
   12.3457    1.6293   24.2527 H   0  0  0  0  0  0  0  0  0  0  0  0
    9.9535    0.9665   24.1145 H   0  0  0  0  0  0  0  0  0  0  0  0
   11.0138   -2.2616   21.4714 H   0  0  0  0  0  0  0  0  0  0  0  0
    8.3254   -0.8472   23.5397 H   0  0  0  0  0  0  0  0  0  0  0  0
    8.8246   -2.1518   22.4789 H   0  0  0  0  0  0  0  0  0  0  0  0
    5.4412   -2.1860   20.9959 H   0  0  0  0  0  0  0  0  0  0  0  0
    6.9994   -2.8605   21.4088 H   0  0  0  0  0  0  0  0  0  0  0  0
    6.1477   -1.8317   22.5685 H   0  0  0  0  0  0  0  0  0  0  0  0
    5.1423    0.3848   22.3374 H   0  0  0  0  0  0  0  0  0  0  0  0
    3.1828    1.8309   22.6951 H   0  0  0  0  0  0  0  0  0  0  0  0
    2.1357    3.0307   20.7890 H   0  0  0  0  0  0  0  0  0  0  0  0
    3.0639    2.7833   18.4988 H   0  0  0  0  0  0  0  0  0  0  0  0
    4.7431    1.7619   16.9717 H   0  0  0  0  0  0  0  0  0  0  0  0
    7.6881   -0.7636   18.3482 H   0  0  0  0  0  0  0  0  0  0  0  0
  1  2  1  0  0  0  0
  2  3  2  0  0  0  0
  2  6  1  0  0  0  0
  3  4  1  0  0  0  0
  3 23  1  0  0  0  0
  4  5  2  0  0  0  0
  4 24  1  0  0  0  0
  5  7  1  0  0  0  0
  5 25  1  0  0  0  0
  6  7  2  0  0  0  0
  6 26  1  0  0  0  0
  7  8  1  0  0  0  0
  8  9  1  0  0  0  0
  8 27  1  0  0  0  0
  8 28  1  0  0  0  0
  9 10  2  0  0  0  0
  9 11  1  0  0  0  0
 11 12  1  0  0  0  0
 11 13  1  0  0  0  0
 12 29  1  0  0  0  0
 12 30  1  0  0  0  0
 12 31  1  0  0  0  0
 13 14  2  0  0  0  0
 13 22  1  0  0  0  0
 14 15  1  0  0  0  0
 14 19  1  0  0  0  0
 15 16  2  0  0  0  0
 15 32  1  0  0  0  0
 16 17  1  0  0  0  0
 16 33  1  0  0  0  0
 17 18  2  0  0  0  0
 17 34  1  0  0  0  0
 18 19  1  0  0  0  0
 18 35  1  0  0  0  0
 19 20  2  0  0  0  0
 20 21  1  0  0  0  0
 20 36  1  0  0  0  0
 21 22  2  0  0  0  0
 22 37  1  0  0  0  0
M  END
$$$$
