Mpro-x10565_ligand
 OpenBabel04052409413D

 31 32  0  0  0  0  0  0  0  0999 V2000
    9.8895    0.3911   24.1562 C   0  0  0  0  0  0  0  0  0  0  0  0
    6.2770    0.7235   17.6194 N   0  0  0  0  0  0  0  0  0  0  0  0
   12.1287   -0.7451   22.8931 C   0  0  0  0  0  0  0  0  0  0  0  0
    5.0183    0.8754   20.1309 C   0  0  0  0  0  0  0  0  0  0  0  0
   12.3015    0.3281   23.7902 C   0  0  0  0  0  0  0  0  0  0  0  0
    4.3661    1.0213   21.4901 C   0  0  0  0  0  0  0  0  0  0  0  0
    9.7249   -0.6647   23.2336 C   0  0  0  0  0  0  0  0  0  0  0  0
    4.5201    1.5992   19.0305 C   0  0  0  0  0  0  0  0  0  0  0  0
    7.9292   -0.3276   21.5374 C   0  0  0  0  0  0  0  0  0  0  0  0
    6.7331   -0.6368   21.0227 N   0  0  0  0  0  0  0  0  0  0  0  0
    8.6543    0.5484   21.0552 O   0  0  0  0  0  0  0  0  0  0  0  0
    6.1632    0.0708   19.9442 C   0  0  0  0  0  0  0  0  0  0  0  0
    8.3496   -1.1109   22.7871 C   0  0  0  0  0  0  0  0  0  0  0  0
    6.7513    0.0216   18.6644 C   0  0  0  0  0  0  0  0  0  0  0  0
   11.1778    0.8905   24.4288 C   0  0  0  0  0  0  0  0  0  0  0  0
   10.8491   -1.2465   22.6255 C   0  0  0  0  0  0  0  0  0  0  0  0
    5.1862    1.4913   17.7983 C   0  0  0  0  0  0  0  0  0  0  0  0
   13.7317   -1.6132   21.8892 I   0  0  0  0  0  0  0  0  0  0  0  0
    9.0307    0.8495   24.6227 H   0  0  0  0  0  0  0  0  0  0  0  0
   13.2878    0.7217   23.9801 H   0  0  0  0  0  0  0  0  0  0  0  0
    4.3286    0.0674   22.0160 H   0  0  0  0  0  0  0  0  0  0  0  0
    4.9293    1.7295   22.0982 H   0  0  0  0  0  0  0  0  0  0  0  0
    3.3468    1.3936   21.3923 H   0  0  0  0  0  0  0  0  0  0  0  0
    3.6594    2.2444   19.1307 H   0  0  0  0  0  0  0  0  0  0  0  0
    6.1355   -1.2628   21.5427 H   0  0  0  0  0  0  0  0  0  0  0  0
    7.6259   -0.9721   23.5885 H   0  0  0  0  0  0  0  0  0  0  0  0
    8.3673   -2.1774   22.5592 H   0  0  0  0  0  0  0  0  0  0  0  0
    7.6362   -0.5688   18.4790 H   0  0  0  0  0  0  0  0  0  0  0  0
   11.2963    1.7197   25.1074 H   0  0  0  0  0  0  0  0  0  0  0  0
   10.7278   -2.0471   21.9093 H   0  0  0  0  0  0  0  0  0  0  0  0
    4.8493    2.0494   16.9384 H   0  0  0  0  0  0  0  0  0  0  0  0
  1  7  2  0  0  0  0
  1 15  1  0  0  0  0
  1 19  1  0  0  0  0
  2 14  2  0  0  0  0
  2 17  1  0  0  0  0
  3  5  1  0  0  0  0
  3 16  2  0  0  0  0
  3 18  1  0  0  0  0
  4  6  1  0  0  0  0
  4  8  1  0  0  0  0
  4 12  2  0  0  0  0
  5 15  2  0  0  0  0
  5 20  1  0  0  0  0
  6 21  1  0  0  0  0
  6 22  1  0  0  0  0
  6 23  1  0  0  0  0
  7 13  1  0  0  0  0
  7 16  1  0  0  0  0
  8 17  2  0  0  0  0
  8 24  1  0  0  0  0
  9 10  1  0  0  0  0
  9 11  2  0  0  0  0
  9 13  1  0  0  0  0
 10 12  1  0  0  0  0
 10 25  1  0  0  0  0
 12 14  1  0  0  0  0
 13 26  1  0  0  0  0
 13 27  1  0  0  0  0
 14 28  1  0  0  0  0
 15 29  1  0  0  0  0
 16 30  1  0  0  0  0
 17 31  1  0  0  0  0
M  END
$$$$
