Mpro-x11801_ligand
 OpenBabel04052409413D

 41 42  0  0  0  0  0  0  0  0999 V2000
    8.6671    0.8505   21.0627 O   0  0  0  0  0  0  0  0  0  0  0  0
    8.1446   -0.2276   21.3604 C   0  0  0  0  0  0  0  0  0  0  0  0
    7.0289   -0.6750   20.7795 N   0  0  0  0  0  0  0  0  0  0  0  0
    6.2864    0.0669   19.8454 C   0  0  0  0  0  0  0  0  0  0  0  0
    5.1406    0.7914   20.2384 C   0  0  0  0  0  0  0  0  0  0  0  0
    4.6577    0.7951   21.6754 C   0  0  0  0  0  0  0  0  0  0  0  0
    4.4539    1.5332   19.2593 C   0  0  0  0  0  0  0  0  0  0  0  0
    4.9239    1.4979   17.9361 C   0  0  0  0  0  0  0  0  0  0  0  0
    5.9999    0.7836   17.5582 N   0  0  0  0  0  0  0  0  0  0  0  0
    6.6717    0.0848   18.4925 C   0  0  0  0  0  0  0  0  0  0  0  0
    8.7376   -1.1437   22.4372 C   0  0  0  0  0  0  0  0  0  0  0  0
   10.1787   -0.7764   22.7071 C   0  0  0  0  0  0  0  0  0  0  0  0
   11.2203   -1.5161   22.1233 C   0  0  0  0  0  0  0  0  0  0  0  0
   12.5487   -1.0791   22.2483 C   0  0  0  0  0  0  0  0  0  0  0  0
   13.7858   -1.9571   21.4413 Cl  0  0  0  0  0  0  0  0  0  0  0  0
   12.8455    0.0928   22.9722 C   0  0  0  0  0  0  0  0  0  0  0  0
   10.4755    0.3572   23.4814 C   0  0  0  0  0  0  0  0  0  0  0  0
   11.8009    0.8032   23.6015 C   0  0  0  0  0  0  0  0  0  0  0  0
   12.0913    2.0070   24.4606 C   0  0  0  0  0  0  0  0  0  0  0  0
   12.0266    3.3099   23.8073 N   0  0  0  0  0  0  0  0  0  0  0  0
   10.8986    3.9535   23.4733 C   0  0  0  0  0  0  0  0  0  0  0  0
    9.7984    3.4123   23.4068 O   0  0  0  0  0  0  0  0  0  0  0  0
   11.0179    5.4551   23.2454 C   0  0  0  0  0  0  0  0  0  0  0  0
    6.6241   -1.5434   21.1111 H   0  0  0  0  0  0  0  0  0  0  0  0
    3.7032    1.3142   21.7704 H   0  0  0  0  0  0  0  0  0  0  0  0
    4.5268   -0.2242   22.0368 H   0  0  0  0  0  0  0  0  0  0  0  0
    5.3809    1.2911   22.3209 H   0  0  0  0  0  0  0  0  0  0  0  0
    3.5835    2.1176   19.5105 H   0  0  0  0  0  0  0  0  0  0  0  0
    4.4340    2.0679   17.1626 H   0  0  0  0  0  0  0  0  0  0  0  0
    7.5364   -0.4668   18.1534 H   0  0  0  0  0  0  0  0  0  0  0  0
    8.6740   -2.1842   22.1145 H   0  0  0  0  0  0  0  0  0  0  0  0
    8.1532   -1.0531   23.3528 H   0  0  0  0  0  0  0  0  0  0  0  0
   10.9989   -2.3901   21.5317 H   0  0  0  0  0  0  0  0  0  0  0  0
   13.8685    0.4307   23.0579 H   0  0  0  0  0  0  0  0  0  0  0  0
    9.6748    0.9082   23.9505 H   0  0  0  0  0  0  0  0  0  0  0  0
   13.0931    1.8572   24.8331 H   0  0  0  0  0  0  0  0  0  0  0  0
   11.4336    2.0014   25.3306 H   0  0  0  0  0  0  0  0  0  0  0  0
   12.8883    3.8338   23.7741 H   0  0  0  0  0  0  0  0  0  0  0  0
   10.4052    5.7776   22.4049 H   0  0  0  0  0  0  0  0  0  0  0  0
   10.6834    5.9943   24.1317 H   0  0  0  0  0  0  0  0  0  0  0  0
   12.0533    5.7347   23.0483 H   0  0  0  0  0  0  0  0  0  0  0  0
  1  2  2  0  0  0  0
  2  3  1  0  0  0  0
  2 11  1  0  0  0  0
  3  4  1  0  0  0  0
  3 24  1  0  0  0  0
  4  5  2  0  0  0  0
  4 10  1  0  0  0  0
  5  6  1  0  0  0  0
  5  7  1  0  0  0  0
  6 25  1  0  0  0  0
  6 26  1  0  0  0  0
  6 27  1  0  0  0  0
  7  8  2  0  0  0  0
  7 28  1  0  0  0  0
  8  9  1  0  0  0  0
  8 29  1  0  0  0  0
  9 10  2  0  0  0  0
 10 30  1  0  0  0  0
 11 12  1  0  0  0  0
 11 31  1  0  0  0  0
 11 32  1  0  0  0  0
 12 13  2  0  0  0  0
 12 17  1  0  0  0  0
 13 14  1  0  0  0  0
 13 33  1  0  0  0  0
 14 15  1  0  0  0  0
 14 16  2  0  0  0  0
 16 18  1  0  0  0  0
 16 34  1  0  0  0  0
 17 18  2  0  0  0  0
 17 35  1  0  0  0  0
 18 19  1  0  0  0  0
 19 20  1  0  0  0  0
 19 36  1  0  0  0  0
 19 37  1  0  0  0  0
 20 21  1  0  0  0  0
 20 38  1  0  0  0  0
 21 22  2  0  0  0  0
 21 23  1  0  0  0  0
 23 39  1  0  0  0  0
 23 40  1  0  0  0  0
 23 41  1  0  0  0  0
M  END
$$$$
