Mpro-x0755_ligand
 OpenBabel04052409413D

 34 35  0  0  0  0  0  0  0  0999 V2000
    7.4614   -3.3445   20.9424 C   0  0  0  0  0  0  0  0  0  0  0  0
    6.7087   -4.6728   20.9201 C   0  0  0  0  0  0  0  0  0  0  0  0
    6.0411   -4.9821   19.9342 O   0  0  0  0  0  0  0  0  0  0  0  0
    6.7609   -5.4288   22.0289 N   0  0  0  0  0  0  0  0  0  0  0  0
    5.7407   -6.4152   22.3604 C   0  0  0  0  0  0  0  0  0  0  0  0
    4.8353   -5.8363   23.4649 C   0  0  0  0  0  0  0  0  0  0  0  0
    7.6351   -5.1595   23.1651 C   0  0  0  0  0  0  0  0  0  0  0  0
    6.7926   -4.4818   24.2532 C   0  0  0  0  0  0  0  0  0  0  0  0
    5.6390   -5.3314   24.5998 N   0  0  0  0  0  0  0  0  0  0  0  0
    4.9340   -5.2297   26.1742 S   0  0  0  0  0  0  0  0  0  0  0  0
    4.2296   -6.4981   26.4111 O   0  0  0  0  0  0  0  0  0  0  0  0
    5.9812   -4.7956   27.1126 O   0  0  0  0  0  0  0  0  0  0  0  0
    3.7291   -3.9049   25.9957 C   0  0  0  0  0  0  0  0  0  0  0  0
    2.3674   -4.2078   25.7599 C   0  0  0  0  0  0  0  0  0  0  0  0
    1.9456   -5.4847   25.6024 F   0  0  0  0  0  0  0  0  0  0  0  0
    4.1399   -2.5584   26.1211 C   0  0  0  0  0  0  0  0  0  0  0  0
    5.4402   -2.2375   26.3127 F   0  0  0  0  0  0  0  0  0  0  0  0
    3.1856   -1.5258   26.0564 C   0  0  0  0  0  0  0  0  0  0  0  0
    1.8275   -1.8299   25.8474 C   0  0  0  0  0  0  0  0  0  0  0  0
    1.4218   -3.1680   25.6873 C   0  0  0  0  0  0  0  0  0  0  0  0
    7.2961   -2.8350   21.8865 H   0  0  0  0  0  0  0  0  0  0  0  0
    8.5323   -3.5012   20.8290 H   0  0  0  0  0  0  0  0  0  0  0  0
    7.1354   -2.6514   20.1764 H   0  0  0  0  0  0  0  0  0  0  0  0
    6.2145   -7.3383   22.6943 H   0  0  0  0  0  0  0  0  0  0  0  0
    5.1358   -6.6793   21.4962 H   0  0  0  0  0  0  0  0  0  0  0  0
    4.1452   -6.6042   23.8099 H   0  0  0  0  0  0  0  0  0  0  0  0
    4.2285   -5.0205   23.0720 H   0  0  0  0  0  0  0  0  0  0  0  0
    8.5005   -4.5451   22.9162 H   0  0  0  0  0  0  0  0  0  0  0  0
    8.0634   -6.0936   23.5246 H   0  0  0  0  0  0  0  0  0  0  0  0
    6.4289   -3.5094   23.9249 H   0  0  0  0  0  0  0  0  0  0  0  0
    7.4139   -4.3088   25.1268 H   0  0  0  0  0  0  0  0  0  0  0  0
    3.4993   -0.4973   26.1640 H   0  0  0  0  0  0  0  0  0  0  0  0
    1.0988   -1.0341   25.7959 H   0  0  0  0  0  0  0  0  0  0  0  0
    0.3807   -3.3988   25.5122 H   0  0  0  0  0  0  0  0  0  0  0  0
  1  2  1  0  0  0  0
  1 21  1  0  0  0  0
  1 22  1  0  0  0  0
  1 23  1  0  0  0  0
  2  3  2  0  0  0  0
  2  4  1  0  0  0  0
  4  5  1  0  0  0  0
  4  7  1  0  0  0  0
  5  6  1  0  0  0  0
  5 24  1  0  0  0  0
  5 25  1  0  0  0  0
  6  9  1  0  0  0  0
  6 26  1  0  0  0  0
  6 27  1  0  0  0  0
  7  8  1  0  0  0  0
  7 28  1  0  0  0  0
  7 29  1  0  0  0  0
  8  9  1  0  0  0  0
  8 30  1  0  0  0  0
  8 31  1  0  0  0  0
  9 10  1  0  0  0  0
 10 11  2  0  0  0  0
 10 12  2  0  0  0  0
 10 13  1  0  0  0  0
 13 14  2  0  0  0  0
 13 16  1  0  0  0  0
 14 15  1  0  0  0  0
 14 20  1  0  0  0  0
 16 17  1  0  0  0  0
 16 18  2  0  0  0  0
 18 19  1  0  0  0  0
 18 32  1  0  0  0  0
 19 20  2  0  0  0  0
 19 33  1  0  0  0  0
 20 34  1  0  0  0  0
M  END
$$$$
