Mpro-x10870_ligand
 OpenBabel04052409413D

 52 56  0  0  0  0  0  0  0  0999 V2000
   13.6963   -1.9455   24.8933 S   0  0  0  0  0  0  0  0  0  0  0  0
    7.1292   -0.1522   20.0116 N   0  0  0  0  0  0  0  0  0  0  0  0
    9.6604   -0.3377   22.7173 N   0  0  0  0  0  0  0  0  0  0  0  0
    6.6190    0.5641   18.0469 N   0  0  0  0  0  0  0  0  0  0  0  0
    7.9567   -0.8320   20.9833 C   0  0  0  0  0  0  0  0  0  0  0  0
   13.6522   -2.0855   23.1615 C   0  0  0  0  0  0  0  0  0  0  0  0
    6.3738   -5.8807   27.4019 C   0  0  0  0  0  0  0  0  0  0  0  0
    6.5559   -3.5139   27.6065 O   0  0  0  0  0  0  0  0  0  0  0  0
   10.8155    0.3841   23.2670 C   0  0  0  0  0  0  0  0  0  0  0  0
    5.6697    1.0194   18.9374 C   0  0  0  0  0  0  0  0  0  0  0  0
    5.1668    0.8597   21.3464 C   0  0  0  0  0  0  0  0  0  0  0  0
    8.0361   -3.4787   25.0649 C   0  0  0  0  0  0  0  0  0  0  0  0
    4.0294    1.6658   21.1540 C   0  0  0  0  0  0  0  0  0  0  0  0
    3.7216    2.1593   19.8685 C   0  0  0  0  0  0  0  0  0  0  0  0
   12.6909   -1.2835   22.6080 C   0  0  0  0  0  0  0  0  0  0  0  0
    9.1259   -1.3991   23.4923 C   0  0  0  0  0  0  0  0  0  0  0  0
    4.9420   -6.2511   27.0790 C   0  0  0  0  0  0  0  0  0  0  0  0
    6.8193   -4.5322   26.9667 C   0  0  0  0  0  0  0  0  0  0  0  0
    9.6170   -2.7149   23.3624 C   0  0  0  0  0  0  0  0  0  0  0  0
   11.9636   -0.5321   23.5784 C   0  0  0  0  0  0  0  0  0  0  0  0
   12.3946   -0.7920   24.8534 C   0  0  0  0  0  0  0  0  0  0  0  0
    5.3431   -5.9925   28.5080 C   0  0  0  0  0  0  0  0  0  0  0  0
    8.0740   -1.1296   24.3884 C   0  0  0  0  0  0  0  0  0  0  0  0
    9.0294    0.0857   21.5978 C   0  0  0  0  0  0  0  0  0  0  0  0
    7.4842   -0.1471   18.6988 N   0  0  0  0  0  0  0  0  0  0  0  0
    9.2716    1.1741   21.0718 O   0  0  0  0  0  0  0  0  0  0  0  0
    5.9674    0.5549   20.2340 C   0  0  0  0  0  0  0  0  0  0  0  0
    4.5374    1.8406   18.7635 C   0  0  0  0  0  0  0  0  0  0  0  0
    7.5137   -2.1663   25.1519 C   0  0  0  0  0  0  0  0  0  0  0  0
    9.0775   -3.7475   24.1525 C   0  0  0  0  0  0  0  0  0  0  0  0
    7.5399   -4.5651   25.8307 N   0  0  0  0  0  0  0  0  0  0  0  0
    8.4635   -1.6721   20.5191 H   0  0  0  0  0  0  0  0  0  0  0  0
    7.2842   -1.2396   21.7369 H   0  0  0  0  0  0  0  0  0  0  0  0
   14.3146   -2.7676   22.6595 H   0  0  0  0  0  0  0  0  0  0  0  0
    7.1200   -6.6648   27.3383 H   0  0  0  0  0  0  0  0  0  0  0  0
   10.4771    0.8971   24.1666 H   0  0  0  0  0  0  0  0  0  0  0  0
   11.1699    1.1725   22.6021 H   0  0  0  0  0  0  0  0  0  0  0  0
    5.4181    0.4863   22.3280 H   0  0  0  0  0  0  0  0  0  0  0  0
    3.3961    1.9148   21.9911 H   0  0  0  0  0  0  0  0  0  0  0  0
    2.8607    2.7931   19.7290 H   0  0  0  0  0  0  0  0  0  0  0  0
   12.4733   -1.2373   21.5526 H   0  0  0  0  0  0  0  0  0  0  0  0
    4.7494   -7.2791   26.7845 H   0  0  0  0  0  0  0  0  0  0  0  0
    4.3147   -5.5056   26.5929 H   0  0  0  0  0  0  0  0  0  0  0  0
   10.4155   -2.9322   22.6691 H   0  0  0  0  0  0  0  0  0  0  0  0
   12.0023   -0.3927   25.7714 H   0  0  0  0  0  0  0  0  0  0  0  0
    4.9682   -5.0823   28.9731 H   0  0  0  0  0  0  0  0  0  0  0  0
    5.4313   -6.8468   29.1765 H   0  0  0  0  0  0  0  0  0  0  0  0
    7.6849   -0.1285   24.4824 H   0  0  0  0  0  0  0  0  0  0  0  0
    4.3073    2.2349   17.7859 H   0  0  0  0  0  0  0  0  0  0  0  0
    6.6935   -1.9227   25.8079 H   0  0  0  0  0  0  0  0  0  0  0  0
    9.4743   -4.7486   24.0643 H   0  0  0  0  0  0  0  0  0  0  0  0
    7.7734   -5.4833   25.4826 H   0  0  0  0  0  0  0  0  0  0  0  0
  1  6  1  0  0  0  0
  1 21  1  0  0  0  0
  2  5  1  0  0  0  0
  2 25  1  0  0  0  0
  2 27  1  0  0  0  0
  3  9  1  0  0  0  0
  3 16  1  0  0  0  0
  3 24  1  0  0  0  0
  4 10  1  0  0  0  0
  4 25  2  0  0  0  0
  5 24  1  0  0  0  0
  5 32  1  0  0  0  0
  5 33  1  0  0  0  0
  6 15  2  0  0  0  0
  6 34  1  0  0  0  0
  7 17  1  0  0  0  0
  7 18  1  0  0  0  0
  7 22  1  0  0  0  0
  7 35  1  0  0  0  0
  8 18  2  0  0  0  0
  9 20  1  0  0  0  0
  9 36  1  0  0  0  0
  9 37  1  0  0  0  0
 10 27  2  0  0  0  0
 10 28  1  0  0  0  0
 11 13  2  0  0  0  0
 11 27  1  0  0  0  0
 11 38  1  0  0  0  0
 12 29  2  0  0  0  0
 12 30  1  0  0  0  0
 12 31  1  0  0  0  0
 13 14  1  0  0  0  0
 13 39  1  0  0  0  0
 14 28  2  0  0  0  0
 14 40  1  0  0  0  0
 15 20  1  0  0  0  0
 15 41  1  0  0  0  0
 16 19  1  0  0  0  0
 16 23  2  0  0  0  0
 17 22  1  0  0  0  0
 17 42  1  0  0  0  0
 17 43  1  0  0  0  0
 18 31  1  0  0  0  0
 19 30  2  0  0  0  0
 19 44  1  0  0  0  0
 20 21  2  0  0  0  0
 21 45  1  0  0  0  0
 22 46  1  0  0  0  0
 22 47  1  0  0  0  0
 23 29  1  0  0  0  0
 23 48  1  0  0  0  0
 24 26  2  0  0  0  0
 28 49  1  0  0  0  0
 29 50  1  0  0  0  0
 30 51  1  0  0  0  0
 31 52  1  0  0  0  0
M  END
$$$$
