Mpro-x11797_ligand
 OpenBabel04052409413D

 49 52  0  0  0  0  0  0  0  0999 V2000
    8.9956    1.5332   21.1735 O   0  0  0  0  0  0  0  0  0  0  0  0
    8.8313    0.4663   21.7697 C   0  0  0  0  0  0  0  0  0  0  0  0
    8.0953   -0.6871   21.0555 C   0  0  0  0  0  0  0  0  0  0  0  0
    7.2238   -0.1809   20.0139 N   0  0  0  0  0  0  0  0  0  0  0  0
    6.0271    0.4918   20.1536 C   0  0  0  0  0  0  0  0  0  0  0  0
    5.1884    0.8559   21.2183 C   0  0  0  0  0  0  0  0  0  0  0  0
    4.0536    1.6443   20.9424 C   0  0  0  0  0  0  0  0  0  0  0  0
    3.7899    2.0608   19.6211 C   0  0  0  0  0  0  0  0  0  0  0  0
    4.6392    1.6737   18.5643 C   0  0  0  0  0  0  0  0  0  0  0  0
    5.7630    0.8666   18.8204 C   0  0  0  0  0  0  0  0  0  0  0  0
    6.7370    0.3629   17.9849 N   0  0  0  0  0  0  0  0  0  0  0  0
    7.6042   -0.2702   18.7115 N   0  0  0  0  0  0  0  0  0  0  0  0
    9.2769    0.2812   23.0355 N   0  0  0  0  0  0  0  0  0  0  0  0
    9.8788    1.3920   23.7858 C   0  0  0  0  0  0  0  0  0  0  0  0
   11.2885    1.6447   23.3596 C   0  0  0  0  0  0  0  0  0  0  0  0
   11.7185    2.8507   22.8543 N   0  0  0  0  0  0  0  0  0  0  0  0
   13.0092    2.8300   22.4731 N   0  0  0  0  0  0  0  0  0  0  0  0
   13.4022    1.5973   22.7452 C   0  0  0  0  0  0  0  0  0  0  0  0
   12.3655    0.8086   23.3134 C   0  0  0  0  0  0  0  0  0  0  0  0
    9.1902   -0.9773   23.6775 C   0  0  0  0  0  0  0  0  0  0  0  0
   10.0210   -2.0405   23.2754 C   0  0  0  0  0  0  0  0  0  0  0  0
    9.9231   -3.2864   23.9177 C   0  0  0  0  0  0  0  0  0  0  0  0
    8.2670   -1.1702   24.7208 C   0  0  0  0  0  0  0  0  0  0  0  0
    8.1704   -2.4172   25.3611 C   0  0  0  0  0  0  0  0  0  0  0  0
    8.9961   -3.4984   24.9706 C   0  0  0  0  0  0  0  0  0  0  0  0
    8.9025   -4.7498   25.6155 N   0  0  0  0  0  0  0  0  0  0  0  0
    7.8747   -4.9988   26.6177 C   0  0  0  0  0  0  0  0  0  0  0  0
    9.8250   -5.8102   25.2535 C   0  0  0  0  0  0  0  0  0  0  0  0
    7.4747   -1.2580   21.7464 H   0  0  0  0  0  0  0  0  0  0  0  0
    8.8279   -1.3703   20.6255 H   0  0  0  0  0  0  0  0  0  0  0  0
    5.4149    0.5482   22.2284 H   0  0  0  0  0  0  0  0  0  0  0  0
    3.3956    1.9424   21.7449 H   0  0  0  0  0  0  0  0  0  0  0  0
    2.9337    2.6819   19.4116 H   0  0  0  0  0  0  0  0  0  0  0  0
    4.4448    2.0047   17.5581 H   0  0  0  0  0  0  0  0  0  0  0  0
    9.8667    1.1702   24.8540 H   0  0  0  0  0  0  0  0  0  0  0  0
    9.2784    2.2964   23.6742 H   0  0  0  0  0  0  0  0  0  0  0  0
   11.1430    3.6738   22.7357 H   0  0  0  0  0  0  0  0  0  0  0  0
   14.4178    1.3108   22.5163 H   0  0  0  0  0  0  0  0  0  0  0  0
   12.3931   -0.2207   23.6179 H   0  0  0  0  0  0  0  0  0  0  0  0
   10.7334   -1.9056   22.4741 H   0  0  0  0  0  0  0  0  0  0  0  0
   10.5857   -4.0683   23.5846 H   0  0  0  0  0  0  0  0  0  0  0  0
    7.6167   -0.3677   25.0260 H   0  0  0  0  0  0  0  0  0  0  0  0
    7.4508   -2.5166   26.1596 H   0  0  0  0  0  0  0  0  0  0  0  0
    7.9131   -6.0240   26.9849 H   0  0  0  0  0  0  0  0  0  0  0  0
    8.0150   -4.3390   27.4714 H   0  0  0  0  0  0  0  0  0  0  0  0
    6.8803   -4.8297   26.2035 H   0  0  0  0  0  0  0  0  0  0  0  0
    9.6301   -6.7070   25.8325 H   0  0  0  0  0  0  0  0  0  0  0  0
    9.7183   -6.0728   24.2008 H   0  0  0  0  0  0  0  0  0  0  0  0
   10.8541   -5.5041   25.4429 H   0  0  0  0  0  0  0  0  0  0  0  0
  1  2  2  0  0  0  0
  2  3  1  0  0  0  0
  2 13  1  0  0  0  0
  3  4  1  0  0  0  0
  3 29  1  0  0  0  0
  3 30  1  0  0  0  0
  4  5  1  0  0  0  0
  4 12  1  0  0  0  0
  5  6  2  0  0  0  0
  5 10  1  0  0  0  0
  6  7  1  0  0  0  0
  6 31  1  0  0  0  0
  7  8  2  0  0  0  0
  7 32  1  0  0  0  0
  8  9  1  0  0  0  0
  8 33  1  0  0  0  0
  9 10  2  0  0  0  0
  9 34  1  0  0  0  0
 10 11  1  0  0  0  0
 11 12  2  0  0  0  0
 13 14  1  0  0  0  0
 13 20  1  0  0  0  0
 14 15  1  0  0  0  0
 14 35  1  0  0  0  0
 14 36  1  0  0  0  0
 15 16  1  0  0  0  0
 15 19  2  0  0  0  0
 16 17  1  0  0  0  0
 16 37  1  0  0  0  0
 17 18  2  0  0  0  0
 18 19  1  0  0  0  0
 18 38  1  0  0  0  0
 19 39  1  0  0  0  0
 20 21  2  0  0  0  0
 20 23  1  0  0  0  0
 21 22  1  0  0  0  0
 21 40  1  0  0  0  0
 22 25  2  0  0  0  0
 22 41  1  0  0  0  0
 23 24  2  0  0  0  0
 23 42  1  0  0  0  0
 24 25  1  0  0  0  0
 24 43  1  0  0  0  0
 25 26  1  0  0  0  0
 26 27  1  0  0  0  0
 26 28  1  0  0  0  0
 27 44  1  0  0  0  0
 27 45  1  0  0  0  0
 27 46  1  0  0  0  0
 28 47  1  0  0  0  0
 28 48  1  0  0  0  0
 28 49  1  0  0  0  0
M  END
$$$$
