Mpro-x11641_ligand
 OpenBabel04052409413D

 43 45  0  0  1  0  0  0  0  0999 V2000
   14.1121    6.5189   21.7270 O   0  0  0  0  0  0  0  0  0  0  0  0
   13.5054    5.5110   22.0119 C   0  0  0  0  0  0  0  0  0  0  0  0
   13.0889    4.2276   21.2975 C   0  0  0  0  0  0  0  0  0  0  0  0
   12.9070    5.1064   23.1766 N   0  0  0  0  0  0  0  0  0  0  0  0
   12.4089    3.8493   22.6132 C   0  0  2  0  0  0  0  0  0  0  0  0
   13.0428    2.7223   23.2096 O   0  0  0  0  0  0  0  0  0  0  0  0
   12.4935    1.4977   22.9233 C   0  0  0  0  0  0  0  0  0  0  0  0
   13.3373    0.4623   22.4780 C   0  0  0  0  0  0  0  0  0  0  0  0
   12.7978   -0.7904   22.1324 C   0  0  0  0  0  0  0  0  0  0  0  0
   13.8098   -2.0329   21.5057 Cl  0  0  0  0  0  0  0  0  0  0  0  0
   11.4179   -1.0271   22.2537 C   0  0  0  0  0  0  0  0  0  0  0  0
   11.1144    1.2413   23.0843 C   0  0  0  0  0  0  0  0  0  0  0  0
   10.5641   -0.0130   22.7395 C   0  0  0  0  0  0  0  0  0  0  0  0
    9.0605   -0.2370   22.8922 C   0  0  2  0  0  0  0  0  0  0  0  0
    8.6555   -1.7141   23.1118 C   0  0  0  0  0  0  0  0  0  0  0  0
    8.3071    0.4609   21.7431 C   0  0  0  0  0  0  0  0  0  0  0  0
    8.4611    1.6707   21.5594 O   0  0  0  0  0  0  0  0  0  0  0  0
    7.4974   -0.2828   20.9697 N   0  0  0  0  0  0  0  0  0  0  0  0
    6.6429    0.2631   19.9846 C   0  0  0  0  0  0  0  0  0  0  0  0
    5.4740    0.9930   20.3193 C   0  0  0  0  0  0  0  0  0  0  0  0
    5.0218    1.1822   21.7568 C   0  0  0  0  0  0  0  0  0  0  0  0
    4.7201    1.5578   19.2727 C   0  0  0  0  0  0  0  0  0  0  0  0
    5.1419    1.3485   17.9474 C   0  0  0  0  0  0  0  0  0  0  0  0
    6.2240    0.6153   17.6211 N   0  0  0  0  0  0  0  0  0  0  0  0
    6.9536    0.0839   18.6233 C   0  0  0  0  0  0  0  0  0  0  0  0
   13.9162    3.5702   21.0467 H   0  0  0  0  0  0  0  0  0  0  0  0
   12.4035    4.3439   20.4595 H   0  0  0  0  0  0  0  0  0  0  0  0
   12.8270    5.5394   24.0850 H   0  0  0  0  0  0  0  0  0  0  0  0
   11.3207    3.8181   22.5427 H   0  0  0  0  0  0  0  0  0  0  0  0
   14.3938    0.6464   22.3574 H   0  0  0  0  0  0  0  0  0  0  0  0
   11.0344   -1.9927   21.9630 H   0  0  0  0  0  0  0  0  0  0  0  0
   10.4631    2.0146   23.4646 H   0  0  0  0  0  0  0  0  0  0  0  0
    8.7636    0.2939   23.7981 H   0  0  0  0  0  0  0  0  0  0  0  0
    7.5895   -1.8020   23.3278 H   0  0  0  0  0  0  0  0  0  0  0  0
    8.8641   -2.3428   22.2450 H   0  0  0  0  0  0  0  0  0  0  0  0
    9.1888   -2.1365   23.9643 H   0  0  0  0  0  0  0  0  0  0  0  0
    7.4879   -1.2837   21.0983 H   0  0  0  0  0  0  0  0  0  0  0  0
    3.9735    1.4804   21.8012 H   0  0  0  0  0  0  0  0  0  0  0  0
    5.1256    0.2571   22.3243 H   0  0  0  0  0  0  0  0  0  0  0  0
    5.6132    1.9593   22.2413 H   0  0  0  0  0  0  0  0  0  0  0  0
    3.8387    2.1490   19.4719 H   0  0  0  0  0  0  0  0  0  0  0  0
    4.5969    1.7876   17.1270 H   0  0  0  0  0  0  0  0  0  0  0  0
    7.8301   -0.4736   18.3273 H   0  0  0  0  0  0  0  0  0  0  0  0
  1  2  2  0  0  0  0
  2  3  1  0  0  0  0
  2  4  1  0  0  0  0
  3  5  1  0  0  0  0
  3 26  1  0  0  0  0
  3 27  1  0  0  0  0
  4  5  1  0  0  0  0
  4 28  1  0  0  0  0
  5  6  1  0  0  0  0
  5 29  1  6  0  0  0
  6  7  1  0  0  0  0
  7  8  2  0  0  0  0
  7 12  1  0  0  0  0
  8  9  1  0  0  0  0
  8 30  1  0  0  0  0
  9 10  1  0  0  0  0
  9 11  2  0  0  0  0
 11 13  1  0  0  0  0
 11 31  1  0  0  0  0
 12 13  2  0  0  0  0
 12 32  1  0  0  0  0
 13 14  1  0  0  0  0
 14 15  1  0  0  0  0
 14 16  1  0  0  0  0
 14 33  1  1  0  0  0
 15 34  1  0  0  0  0
 15 35  1  0  0  0  0
 15 36  1  0  0  0  0
 16 17  2  0  0  0  0
 16 18  1  0  0  0  0
 18 19  1  0  0  0  0
 18 37  1  0  0  0  0
 19 20  2  0  0  0  0
 19 25  1  0  0  0  0
 20 21  1  0  0  0  0
 20 22  1  0  0  0  0
 21 38  1  0  0  0  0
 21 39  1  0  0  0  0
 21 40  1  0  0  0  0
 22 23  2  0  0  0  0
 22 41  1  0  0  0  0
 23 24  1  0  0  0  0
 23 42  1  0  0  0  0
 24 25  2  0  0  0  0
 25 43  1  0  0  0  0
M  END
$$$$
