Mpro-x10535_ligand
 OpenBabel04052409413D

 30 32  0  0  1  0  0  0  0  0999 V2000
    6.2231    0.4506   20.2422 C   0  0  0  0  0  0  0  0  0  0  0  0
    5.3458    1.1899   17.7357 C   0  0  0  0  0  0  0  0  0  0  0  0
    8.8685   -0.6418   22.2500 N   0  0  0  0  0  0  0  0  0  0  0  0
    6.3749    0.3234   17.8236 N   0  0  0  0  0  0  0  0  0  0  0  0
    4.6857    1.7206   18.8569 C   0  0  0  0  0  0  0  0  0  0  0  0
   12.9551   -0.5210   23.3585 C   0  0  0  0  0  0  0  0  0  0  0  0
    8.7290    1.5148   21.4474 O   0  0  0  0  0  0  0  0  0  0  0  0
   12.5370   -1.3216   22.2807 C   0  0  0  0  0  0  0  0  0  0  0  0
    8.2317    0.4347   21.7721 C   0  0  0  0  0  0  0  0  0  0  0  0
   12.0076    0.2168   24.0895 C   0  0  0  0  0  0  0  0  0  0  0  0
    8.0523   -1.7090   22.3243 C   0  0  0  0  0  0  0  0  0  0  0  0
    6.8380   -1.3373   21.8956 N   0  0  0  0  0  0  0  0  0  0  0  0
    8.3532   -2.8374   22.7113 O   0  0  0  0  0  0  0  0  0  0  0  0
   11.1742   -1.4053   21.9505 C   0  0  0  0  0  0  0  0  0  0  0  0
    6.7623    0.0832   21.6168 C   0  0  2  0  0  0  0  0  0  0  0  0
   10.2274   -0.6358   22.6526 C   0  0  0  0  0  0  0  0  0  0  0  0
    6.8006   -0.0383   19.0507 C   0  0  0  0  0  0  0  0  0  0  0  0
    5.1341    1.3407   20.1336 C   0  0  0  0  0  0  0  0  0  0  0  0
   10.6462    0.1681   23.7341 C   0  0  0  0  0  0  0  0  0  0  0  0
   13.6894   -2.1694   21.3291 Cl  0  0  0  0  0  0  0  0  0  0  0  0
    5.0525    1.4910   16.7444 H   0  0  0  0  0  0  0  0  0  0  0  0
    3.8719    2.4211   18.7370 H   0  0  0  0  0  0  0  0  0  0  0  0
   13.9997   -0.4664   23.6193 H   0  0  0  0  0  0  0  0  0  0  0  0
   12.3354    0.8366   24.9072 H   0  0  0  0  0  0  0  0  0  0  0  0
    6.0284   -1.9402   21.8891 H   0  0  0  0  0  0  0  0  0  0  0  0
   10.8596   -2.0400   21.1413 H   0  0  0  0  0  0  0  0  0  0  0  0
    6.1856    0.5751   22.4016 H   0  0  0  0  0  0  0  0  0  0  0  0
    7.6433   -0.7130   19.0800 H   0  0  0  0  0  0  0  0  0  0  0  0
    4.6571    1.7410   21.0157 H   0  0  0  0  0  0  0  0  0  0  0  0
    9.9218    0.7516   24.2824 H   0  0  0  0  0  0  0  0  0  0  0  0
  1 15  1  0  0  0  0
  1 17  2  0  0  0  0
  1 18  1  0  0  0  0
  2  4  2  0  0  0  0
  2  5  1  0  0  0  0
  2 21  1  0  0  0  0
  3  9  1  0  0  0  0
  3 11  1  0  0  0  0
  3 16  1  0  0  0  0
  4 17  1  0  0  0  0
  5 18  2  0  0  0  0
  5 22  1  0  0  0  0
  6  8  2  0  0  0  0
  6 10  1  0  0  0  0
  6 23  1  0  0  0  0
  7  9  2  0  0  0  0
  8 14  1  0  0  0  0
  8 20  1  0  0  0  0
  9 15  1  0  0  0  0
 10 19  2  0  0  0  0
 10 24  1  0  0  0  0
 11 12  1  0  0  0  0
 11 13  2  0  0  0  0
 12 15  1  0  0  0  0
 12 25  1  0  0  0  0
 14 16  2  0  0  0  0
 14 26  1  0  0  0  0
 15 27  1  1  0  0  0
 16 19  1  0  0  0  0
 17 28  1  0  0  0  0
 18 29  1  0  0  0  0
 19 30  1  0  0  0  0
M  END
$$$$
