Mpro-x10638_ligand
 OpenBabel04052409413D

 37 39  0  0  0  0  0  0  0  0999 V2000
    6.1652    0.7435   17.3870 N   0  0  0  0  0  0  0  0  0  0  0  0
    9.1596   -0.4344   23.4698 N   0  0  0  0  0  0  0  0  0  0  0  0
    5.0719    0.9409   19.9840 C   0  0  0  0  0  0  0  0  0  0  0  0
   12.7280    0.3945   24.1586 C   0  0  0  0  0  0  0  0  0  0  0  0
    7.3156    0.4992   24.4283 O   0  0  0  0  0  0  0  0  0  0  0  0
    8.5400    0.4072   24.3376 C   0  0  0  0  0  0  0  0  0  0  0  0
    4.5425    1.6958   18.9185 C   0  0  0  0  0  0  0  0  0  0  0  0
    7.9289   -0.3691   21.3175 C   0  0  0  0  0  0  0  0  0  0  0  0
    6.1737    0.0970   19.7209 C   0  0  0  0  0  0  0  0  0  0  0  0
    6.6820    0.0349   18.4094 C   0  0  0  0  0  0  0  0  0  0  0  0
   11.3377    0.3053   24.2875 C   0  0  0  0  0  0  0  0  0  0  0  0
   12.6764   -1.0838   22.2358 C   0  0  0  0  0  0  0  0  0  0  0  0
    9.3954    1.3534   25.1942 C   0  0  0  0  0  0  0  0  0  0  0  0
   13.3972   -0.2786   23.1278 C   0  0  0  0  0  0  0  0  0  0  0  0
   11.2727   -1.1413   22.3261 C   0  0  0  0  0  0  0  0  0  0  0  0
    4.4820    1.0653   21.3751 C   0  0  0  0  0  0  0  0  0  0  0  0
    6.7600   -0.6735   20.7436 N   0  0  0  0  0  0  0  0  0  0  0  0
    8.6501    0.5479   20.9229 O   0  0  0  0  0  0  0  0  0  0  0  0
   10.7423    0.9224   25.3559 O   0  0  0  0  0  0  0  0  0  0  0  0
    8.3315   -1.2144   22.5334 C   0  0  0  0  0  0  0  0  0  0  0  0
    5.1188    1.5549   17.6439 C   0  0  0  0  0  0  0  0  0  0  0  0
   10.5841   -0.4329   23.3474 C   0  0  0  0  0  0  0  0  0  0  0  0
   13.5280   -1.9974   21.0463 Cl  0  0  0  0  0  0  0  0  0  0  0  0
   13.2719    0.9740   24.8732 H   0  0  0  0  0  0  0  0  0  0  0  0
    3.7156    2.3753   19.0676 H   0  0  0  0  0  0  0  0  0  0  0  0
    7.5281   -0.5955   18.1753 H   0  0  0  0  0  0  0  0  0  0  0  0
    8.9461    1.4448   26.1834 H   0  0  0  0  0  0  0  0  0  0  0  0
    9.3861    2.3505   24.7551 H   0  0  0  0  0  0  0  0  0  0  0  0
   14.4618   -0.2068   23.0347 H   0  0  0  0  0  0  0  0  0  0  0  0
   10.7558   -1.7334   21.5891 H   0  0  0  0  0  0  0  0  0  0  0  0
    4.3283    0.0838   21.8234 H   0  0  0  0  0  0  0  0  0  0  0  0
    5.1523    1.6331   22.0191 H   0  0  0  0  0  0  0  0  0  0  0  0
    3.5200    1.5762   21.3487 H   0  0  0  0  0  0  0  0  0  0  0  0
    6.1919   -1.3958   21.1691 H   0  0  0  0  0  0  0  0  0  0  0  0
    7.4320   -1.5625   23.0426 H   0  0  0  0  0  0  0  0  0  0  0  0
    8.8126   -2.1345   22.2074 H   0  0  0  0  0  0  0  0  0  0  0  0
    4.7526    2.1331   16.8108 H   0  0  0  0  0  0  0  0  0  0  0  0
  1 10  2  0  0  0  0
  1 21  1  0  0  0  0
  2  6  1  0  0  0  0
  2 20  1  0  0  0  0
  2 22  1  0  0  0  0
  3  7  1  0  0  0  0
  3  9  2  0  0  0  0
  3 16  1  0  0  0  0
  4 11  2  0  0  0  0
  4 14  1  0  0  0  0
  4 24  1  0  0  0  0
  5  6  2  0  0  0  0
  6 13  1  0  0  0  0
  7 21  2  0  0  0  0
  7 25  1  0  0  0  0
  8 17  1  0  0  0  0
  8 18  2  0  0  0  0
  8 20  1  0  0  0  0
  9 10  1  0  0  0  0
  9 17  1  0  0  0  0
 10 26  1  0  0  0  0
 11 19  1  0  0  0  0
 11 22  1  0  0  0  0
 12 14  2  0  0  0  0
 12 15  1  0  0  0  0
 12 23  1  0  0  0  0
 13 19  1  0  0  0  0
 13 27  1  0  0  0  0
 13 28  1  0  0  0  0
 14 29  1  0  0  0  0
 15 22  2  0  0  0  0
 15 30  1  0  0  0  0
 16 31  1  0  0  0  0
 16 32  1  0  0  0  0
 16 33  1  0  0  0  0
 17 34  1  0  0  0  0
 20 35  1  0  0  0  0
 20 36  1  0  0  0  0
 21 37  1  0  0  0  0
M  END
$$$$
