Mpro-x11454_ligand
 OpenBabel04052409413D

 32 34  0  0  0  0  0  0  0  0999 V2000
    8.7102    0.9681   21.3546 O   0  0  0  0  0  0  0  0  0  0  0  0
    8.3731   -0.1877   21.6233 C   0  0  0  0  0  0  0  0  0  0  0  0
    8.9496   -0.8978   22.8532 C   0  0  0  0  0  0  0  0  0  0  0  0
   10.4319   -0.6023   22.9645 C   0  0  0  0  0  0  0  0  0  0  0  0
   10.8923    0.4992   23.7177 C   0  0  0  0  0  0  0  0  0  0  0  0
   12.2589    0.8361   23.7033 C   0  0  0  0  0  0  0  0  0  0  0  0
   13.1674    0.0729   22.9455 C   0  0  0  0  0  0  0  0  0  0  0  0
   11.3485   -1.3886   22.2422 C   0  0  0  0  0  0  0  0  0  0  0  0
   12.7103   -1.0452   22.2216 C   0  0  0  0  0  0  0  0  0  0  0  0
   13.7853   -1.9552   21.2345 Cl  0  0  0  0  0  0  0  0  0  0  0  0
    7.5164   -0.8880   20.8641 N   0  0  0  0  0  0  0  0  0  0  0  0
    6.9202   -0.3827   19.7601 C   0  0  0  0  0  0  0  0  0  0  0  0
    5.8647    0.5176   19.8461 N   0  0  0  0  0  0  0  0  0  0  0  0
    5.5415    0.8635   18.5109 C   0  0  0  0  0  0  0  0  0  0  0  0
    6.3142    0.2007   17.6583 N   0  0  0  0  0  0  0  0  0  0  0  0
    7.1625   -0.5753   18.4315 C   0  0  0  0  0  0  0  0  0  0  0  0
    5.1967    1.0441   20.9131 C   0  0  0  0  0  0  0  0  0  0  0  0
    4.1841    1.9488   20.6999 C   0  0  0  0  0  0  0  0  0  0  0  0
    3.8452    2.3420   19.3859 C   0  0  0  0  0  0  0  0  0  0  0  0
    4.5124    1.8144   18.3088 C   0  0  0  0  0  0  0  0  0  0  0  0
    8.7932   -1.9756   22.7841 H   0  0  0  0  0  0  0  0  0  0  0  0
    8.4312   -0.5550   23.7482 H   0  0  0  0  0  0  0  0  0  0  0  0
   10.1941    1.1123   24.2688 H   0  0  0  0  0  0  0  0  0  0  0  0
   12.6055    1.6984   24.2477 H   0  0  0  0  0  0  0  0  0  0  0  0
   14.2085    0.3526   22.9078 H   0  0  0  0  0  0  0  0  0  0  0  0
   10.9996   -2.2242   21.6551 H   0  0  0  0  0  0  0  0  0  0  0  0
    7.3648   -1.8650   21.0739 H   0  0  0  0  0  0  0  0  0  0  0  0
    7.9138   -1.1955   17.9658 H   0  0  0  0  0  0  0  0  0  0  0  0
    5.5035    0.7208   21.9020 H   0  0  0  0  0  0  0  0  0  0  0  0
    3.6542    2.3743   21.5454 H   0  0  0  0  0  0  0  0  0  0  0  0
    3.0603    3.0711   19.2180 H   0  0  0  0  0  0  0  0  0  0  0  0
    4.2712    2.1286   17.3009 H   0  0  0  0  0  0  0  0  0  0  0  0
  1  2  2  0  0  0  0
  2  3  1  0  0  0  0
  2 11  1  0  0  0  0
  3  4  1  0  0  0  0
  3 21  1  0  0  0  0
  3 22  1  0  0  0  0
  4  5  2  0  0  0  0
  4  8  1  0  0  0  0
  5  6  1  0  0  0  0
  5 23  1  0  0  0  0
  6  7  2  0  0  0  0
  6 24  1  0  0  0  0
  7  9  1  0  0  0  0
  7 25  1  0  0  0  0
  8  9  2  0  0  0  0
  8 26  1  0  0  0  0
  9 10  1  0  0  0  0
 11 12  1  0  0  0  0
 11 27  1  0  0  0  0
 12 13  1  0  0  0  0
 12 16  2  0  0  0  0
 13 14  1  0  0  0  0
 13 17  1  0  0  0  0
 14 15  2  0  0  0  0
 14 20  1  0  0  0  0
 15 16  1  0  0  0  0
 16 28  1  0  0  0  0
 17 18  2  0  0  0  0
 17 29  1  0  0  0  0
 18 19  1  0  0  0  0
 18 30  1  0  0  0  0
 19 20  2  0  0  0  0
 19 31  1  0  0  0  0
 20 32  1  0  0  0  0
M  END
$$$$
