Mpro-x11612_ligand
 OpenBabel04052409413D

 39 42  0  0  1  0  0  0  0  0999 V2000
   10.2210    0.7054   24.8280 O   0  0  0  0  0  0  0  0  0  0  0  0
    3.7822    1.4805   21.7696 C   0  0  0  0  0  0  0  0  0  0  0  0
    3.1496    2.1599   20.7125 C   0  0  0  0  0  0  0  0  0  0  0  0
    3.6677    2.0724   19.4074 C   0  0  0  0  0  0  0  0  0  0  0  0
    4.8151    1.2951   19.1649 C   0  0  0  0  0  0  0  0  0  0  0  0
    8.9753    0.8482   21.2191 O   0  0  0  0  0  0  0  0  0  0  0  0
   11.3876   -1.4096   21.9976 C   0  0  0  0  0  0  0  0  0  0  0  0
    5.3355    1.1639   17.8652 C   0  0  0  0  0  0  0  0  0  0  0  0
    7.1007   -0.1392   18.6028 C   0  0  0  0  0  0  0  0  0  0  0  0
    6.6602   -0.0821   19.9388 C   0  0  0  0  0  0  0  0  0  0  0  0
   10.5056   -0.7653   22.8835 C   0  0  0  0  0  0  0  0  0  0  0  0
    8.4546   -0.2136   21.5720 C   0  0  0  0  0  0  0  0  0  0  0  0
   13.8121   -1.8898   20.8973 Cl  0  0  0  0  0  0  0  0  0  0  0  0
    7.3938   -0.7427   20.9480 N   0  0  0  0  0  0  0  0  0  0  0  0
    4.9448    0.7237   21.5336 C   0  0  0  0  0  0  0  0  0  0  0  0
   12.7563   -1.0992   22.0030 C   0  0  0  0  0  0  0  0  0  0  0  0
   13.2518   -0.1496   22.9155 C   0  0  0  0  0  0  0  0  0  0  0  0
   12.3840    0.4437   23.8509 C   0  0  0  0  0  0  0  0  0  0  0  0
   11.0112    0.1334   23.8555 C   0  0  0  0  0  0  0  0  0  0  0  0
    8.8150    0.6956   24.6100 C   0  0  0  0  0  0  0  0  0  0  0  0
    8.3128   -0.6547   24.0801 C   0  0  0  0  0  0  0  0  0  0  0  0
    9.0141   -1.0202   22.7629 C   0  0  2  0  0  0  0  0  0  0  0  0
    6.4485    0.4596   17.5873 N   0  0  0  0  0  0  0  0  0  0  0  0
    5.4759    0.6333   20.2278 C   0  0  0  0  0  0  0  0  0  0  0  0
    3.3792    1.5442   22.7686 H   0  0  0  0  0  0  0  0  0  0  0  0
    2.2637    2.7484   20.9011 H   0  0  0  0  0  0  0  0  0  0  0  0
    3.1816    2.5986   18.5986 H   0  0  0  0  0  0  0  0  0  0  0  0
   11.0005   -2.1401   21.3082 H   0  0  0  0  0  0  0  0  0  0  0  0
    4.8716    1.6609   17.0278 H   0  0  0  0  0  0  0  0  0  0  0  0
    8.0039   -0.6711   18.3408 H   0  0  0  0  0  0  0  0  0  0  0  0
    6.9855   -1.5855   21.3380 H   0  0  0  0  0  0  0  0  0  0  0  0
    5.4242    0.2260   22.3626 H   0  0  0  0  0  0  0  0  0  0  0  0
   14.2989    0.1044   22.9150 H   0  0  0  0  0  0  0  0  0  0  0  0
   12.7679    1.1470   24.5692 H   0  0  0  0  0  0  0  0  0  0  0  0
    8.5742    1.4939   23.9127 H   0  0  0  0  0  0  0  0  0  0  0  0
    8.3166    0.9385   25.5485 H   0  0  0  0  0  0  0  0  0  0  0  0
    7.2295   -0.6381   23.9537 H   0  0  0  0  0  0  0  0  0  0  0  0
    8.5211   -1.4241   24.8246 H   0  0  0  0  0  0  0  0  0  0  0  0
    8.8600   -2.0819   22.5620 H   0  0  0  0  0  0  0  0  0  0  0  0
  1 19  1  0  0  0  0
  1 20  1  0  0  0  0
  2  3  2  0  0  0  0
  2 15  1  0  0  0  0
  2 25  1  0  0  0  0
  3  4  1  0  0  0  0
  3 26  1  0  0  0  0
  4  5  2  0  0  0  0
  4 27  1  0  0  0  0
  5  8  1  0  0  0  0
  5 24  1  0  0  0  0
  6 12  2  0  0  0  0
  7 11  2  0  0  0  0
  7 16  1  0  0  0  0
  7 28  1  0  0  0  0
  8 23  2  0  0  0  0
  8 29  1  0  0  0  0
  9 10  2  0  0  0  0
  9 23  1  0  0  0  0
  9 30  1  0  0  0  0
 10 14  1  0  0  0  0
 10 24  1  0  0  0  0
 11 19  1  0  0  0  0
 11 22  1  0  0  0  0
 12 14  1  0  0  0  0
 12 22  1  0  0  0  0
 13 16  1  0  0  0  0
 14 31  1  0  0  0  0
 15 24  2  0  0  0  0
 15 32  1  0  0  0  0
 16 17  2  0  0  0  0
 17 18  1  0  0  0  0
 17 33  1  0  0  0  0
 18 19  2  0  0  0  0
 18 34  1  0  0  0  0
 20 21  1  0  0  0  0
 20 35  1  0  0  0  0
 20 36  1  0  0  0  0
 21 22  1  0  0  0  0
 21 37  1  0  0  0  0
 21 38  1  0  0  0  0
 22 39  1  6  0  0  0
M  END
$$$$
