Mpro-x12202_ligand
 OpenBabel04052409413D

 37 39  0  0  0  0  0  0  0  0999 V2000
   13.7852   -1.9267   21.0426 Cl  0  0  0  0  0  0  0  0  0  0  0  0
   12.7352   -1.0535   22.0903 C   0  0  0  0  0  0  0  0  0  0  0  0
   13.2447   -0.0499   22.9353 C   0  0  0  0  0  0  0  0  0  0  0  0
   12.3834    0.6419   23.8067 C   0  0  0  0  0  0  0  0  0  0  0  0
   11.0087    0.3481   23.8139 C   0  0  0  0  0  0  0  0  0  0  0  0
   11.3619   -1.3501   22.1049 C   0  0  0  0  0  0  0  0  0  0  0  0
   10.4908   -0.6305   22.9435 C   0  0  0  0  0  0  0  0  0  0  0  0
    8.9947   -0.8722   22.8675 C   0  0  0  0  0  0  0  0  0  0  0  0
    8.3606   -0.1419   21.6663 C   0  0  0  0  0  0  0  0  0  0  0  0
    9.0550    0.6313   21.0012 O   0  0  0  0  0  0  0  0  0  0  0  0
    7.0523   -0.3610   21.3770 N   0  0  0  0  0  0  0  0  0  0  0  0
    6.1026   -0.8494   22.3803 C   0  0  0  0  0  0  0  0  0  0  0  0
    5.2161    0.3221   22.8231 C   0  0  0  0  0  0  0  0  0  0  0  0
    4.4694    0.9628   21.6395 C   0  0  0  0  0  0  0  0  0  0  0  0
    5.2113    0.8753   20.3089 C   0  0  0  0  0  0  0  0  0  0  0  0
    4.6605    1.4415   19.1374 C   0  0  0  0  0  0  0  0  0  0  0  0
    3.4871    2.1946   19.1642 N   0  0  0  0  0  0  0  0  0  0  0  0
    6.4511    0.1968   20.2104 C   0  0  0  0  0  0  0  0  0  0  0  0
    7.0403    0.0633   18.9327 C   0  0  0  0  0  0  0  0  0  0  0  0
    6.4889    0.5606   17.8093 N   0  0  0  0  0  0  0  0  0  0  0  0
    5.3331    1.2425   17.9175 C   0  0  0  0  0  0  0  0  0  0  0  0
   14.2950    0.1877   22.9161 H   0  0  0  0  0  0  0  0  0  0  0  0
   12.7689    1.4138   24.4520 H   0  0  0  0  0  0  0  0  0  0  0  0
   10.3474    0.8933   24.4681 H   0  0  0  0  0  0  0  0  0  0  0  0
   10.9670   -2.1169   21.4574 H   0  0  0  0  0  0  0  0  0  0  0  0
    8.5387   -0.5250   23.7939 H   0  0  0  0  0  0  0  0  0  0  0  0
    8.8096   -1.9442   22.7869 H   0  0  0  0  0  0  0  0  0  0  0  0
    6.5506   -1.3285   23.2485 H   0  0  0  0  0  0  0  0  0  0  0  0
    5.4874   -1.6186   21.9137 H   0  0  0  0  0  0  0  0  0  0  0  0
    5.8564    1.0767   23.2828 H   0  0  0  0  0  0  0  0  0  0  0  0
    4.5110    0.0145   23.5954 H   0  0  0  0  0  0  0  0  0  0  0  0
    4.2186    1.9971   21.8677 H   0  0  0  0  0  0  0  0  0  0  0  0
    3.5208    0.4468   21.5026 H   0  0  0  0  0  0  0  0  0  0  0  0
    3.2999    2.7884   18.3654 H   0  0  0  0  0  0  0  0  0  0  0  0
    3.2236    2.6191   20.0421 H   0  0  0  0  0  0  0  0  0  0  0  0
    7.9734   -0.4644   18.7991 H   0  0  0  0  0  0  0  0  0  0  0  0
    4.9530    1.6646   17.0010 H   0  0  0  0  0  0  0  0  0  0  0  0
  1  2  1  0  0  0  0
  2  3  2  0  0  0  0
  2  6  1  0  0  0  0
  3  4  1  0  0  0  0
  3 22  1  0  0  0  0
  4  5  2  0  0  0  0
  4 23  1  0  0  0  0
  5  7  1  0  0  0  0
  5 24  1  0  0  0  0
  6  7  2  0  0  0  0
  6 25  1  0  0  0  0
  7  8  1  0  0  0  0
  8  9  1  0  0  0  0
  8 26  1  0  0  0  0
  8 27  1  0  0  0  0
  9 10  2  0  0  0  0
  9 11  1  0  0  0  0
 11 12  1  0  0  0  0
 11 18  1  0  0  0  0
 12 13  1  0  0  0  0
 12 28  1  0  0  0  0
 12 29  1  0  0  0  0
 13 14  1  0  0  0  0
 13 30  1  0  0  0  0
 13 31  1  0  0  0  0
 14 15  1  0  0  0  0
 14 32  1  0  0  0  0
 14 33  1  0  0  0  0
 15 16  2  0  0  0  0
 15 18  1  0  0  0  0
 16 17  1  0  0  0  0
 16 21  1  0  0  0  0
 17 34  1  0  0  0  0
 17 35  1  0  0  0  0
 18 19  2  0  0  0  0
 19 20  1  0  0  0  0
 19 36  1  0  0  0  0
 20 21  2  0  0  0  0
 21 37  1  0  0  0  0
M  END
$$$$
