Mpro-x11366_ligand
 OpenBabel04052409413D

 44 47  0  0  0  0  0  0  0  0999 V2000
    6.1898    1.0998   16.8897 O   0  0  0  0  0  0  0  0  0  0  0  0
    5.7416    0.8647   18.0033 C   0  0  0  0  0  0  0  0  0  0  0  0
    6.1398   -0.2886   18.8080 C   0  0  0  0  0  0  0  0  0  0  0  0
    4.8404    1.6909   18.5652 N   0  0  0  0  0  0  0  0  0  0  0  0
    4.2825    1.5399   19.8547 C   0  0  0  0  0  0  0  0  0  0  0  0
    4.6871    0.4552   20.6633 C   0  0  0  0  0  0  0  0  0  0  0  0
    4.1256    0.3230   21.9540 C   0  0  0  0  0  0  0  0  0  0  0  0
    3.1598    1.2428   22.4073 C   0  0  0  0  0  0  0  0  0  0  0  0
    2.7606    2.3142   21.5866 C   0  0  0  0  0  0  0  0  0  0  0  0
    3.3292    2.4696   20.3091 C   0  0  0  0  0  0  0  0  0  0  0  0
    5.6689   -0.4766   20.0581 C   0  0  0  0  0  0  0  0  0  0  0  0
    6.0300   -1.6927   20.7764 C   0  0  0  0  0  0  0  0  0  0  0  0
    5.5622   -2.7913   20.4732 O   0  0  0  0  0  0  0  0  0  0  0  0
    6.8868   -1.5262   21.8172 N   0  0  0  0  0  0  0  0  0  0  0  0
    7.2381   -2.6288   22.7266 C   0  0  0  0  0  0  0  0  0  0  0  0
    8.7396   -2.9447   22.6062 C   0  0  0  0  0  0  0  0  0  0  0  0
    7.6479   -0.3048   22.1405 C   0  0  0  0  0  0  0  0  0  0  0  0
    9.1588   -0.5862   22.0283 C   0  0  0  0  0  0  0  0  0  0  0  0
    9.5257   -1.7376   22.8480 N   0  0  0  0  0  0  0  0  0  0  0  0
   10.8686   -1.8911   23.2466 C   0  0  0  0  0  0  0  0  0  0  0  0
   11.1841   -2.5975   24.4343 C   0  0  0  0  0  0  0  0  0  0  0  0
   10.2034   -3.1356   25.1972 F   0  0  0  0  0  0  0  0  0  0  0  0
   11.9268   -1.3250   22.4951 C   0  0  0  0  0  0  0  0  0  0  0  0
   13.2628   -1.4684   22.9141 C   0  0  0  0  0  0  0  0  0  0  0  0
   13.5609   -2.1728   24.0938 C   0  0  0  0  0  0  0  0  0  0  0  0
   12.5202   -2.7302   24.8564 C   0  0  0  0  0  0  0  0  0  0  0  0
    6.8179   -1.0066   18.3691 H   0  0  0  0  0  0  0  0  0  0  0  0
    4.5595    2.5098   18.0358 H   0  0  0  0  0  0  0  0  0  0  0  0
    4.4144   -0.4868   22.6067 H   0  0  0  0  0  0  0  0  0  0  0  0
    2.7257    1.1238   23.3884 H   0  0  0  0  0  0  0  0  0  0  0  0
    2.0237    3.0215   21.9396 H   0  0  0  0  0  0  0  0  0  0  0  0
    3.0339    3.2957   19.6799 H   0  0  0  0  0  0  0  0  0  0  0  0
    6.6585   -3.5337   22.5447 H   0  0  0  0  0  0  0  0  0  0  0  0
    7.0025   -2.3301   23.7488 H   0  0  0  0  0  0  0  0  0  0  0  0
    8.9586   -3.3008   21.6002 H   0  0  0  0  0  0  0  0  0  0  0  0
    9.0076   -3.7515   23.2869 H   0  0  0  0  0  0  0  0  0  0  0  0
    7.4008    0.0031   23.1574 H   0  0  0  0  0  0  0  0  0  0  0  0
    7.4087    0.5497   21.5099 H   0  0  0  0  0  0  0  0  0  0  0  0
    9.7203    0.2934   22.3450 H   0  0  0  0  0  0  0  0  0  0  0  0
    9.4228   -0.7881   20.9896 H   0  0  0  0  0  0  0  0  0  0  0  0
   11.7321   -0.7836   21.5811 H   0  0  0  0  0  0  0  0  0  0  0  0
   14.0553   -1.0362   22.3229 H   0  0  0  0  0  0  0  0  0  0  0  0
   14.5843   -2.2913   24.4144 H   0  0  0  0  0  0  0  0  0  0  0  0
   12.7495   -3.2710   25.7625 H   0  0  0  0  0  0  0  0  0  0  0  0
  1  2  2  0  0  0  0
  2  3  1  0  0  0  0
  2  4  1  0  0  0  0
  3 11  2  0  0  0  0
  3 27  1  0  0  0  0
  4  5  1  0  0  0  0
  4 28  1  0  0  0  0
  5  6  2  0  0  0  0
  5 10  1  0  0  0  0
  6  7  1  0  0  0  0
  6 11  1  0  0  0  0
  7  8  2  0  0  0  0
  7 29  1  0  0  0  0
  8  9  1  0  0  0  0
  8 30  1  0  0  0  0
  9 10  2  0  0  0  0
  9 31  1  0  0  0  0
 10 32  1  0  0  0  0
 11 12  1  0  0  0  0
 12 13  2  0  0  0  0
 12 14  1  0  0  0  0
 14 15  1  0  0  0  0
 14 17  1  0  0  0  0
 15 16  1  0  0  0  0
 15 33  1  0  0  0  0
 15 34  1  0  0  0  0
 16 19  1  0  0  0  0
 16 35  1  0  0  0  0
 16 36  1  0  0  0  0
 17 18  1  0  0  0  0
 17 37  1  0  0  0  0
 17 38  1  0  0  0  0
 18 19  1  0  0  0  0
 18 39  1  0  0  0  0
 18 40  1  0  0  0  0
 19 20  1  0  0  0  0
 20 21  2  0  0  0  0
 20 23  1  0  0  0  0
 21 22  1  0  0  0  0
 21 26  1  0  0  0  0
 23 24  2  0  0  0  0
 23 41  1  0  0  0  0
 24 25  1  0  0  0  0
 24 42  1  0  0  0  0
 25 26  2  0  0  0  0
 25 43  1  0  0  0  0
 26 44  1  0  0  0  0
M  END
$$$$
