Mpro-x12661_ligand
 OpenBabel04052409413D

 56 59  0  0  0  0  0  0  0  0999 V2000
    9.0906    1.0091   21.1188 O   0  0  0  0  0  0  0  0  0  0  0  0
    8.7986   -0.1164   21.5317 C   0  0  0  0  0  0  0  0  0  0  0  0
    7.8755   -0.9887   20.6838 C   0  0  0  0  0  0  0  0  0  0  0  0
    6.9547   -0.1688   19.7945 C   0  0  0  0  0  0  0  0  0  0  0  0
    5.8542    0.5691   20.2965 C   0  0  0  0  0  0  0  0  0  0  0  0
    5.5140    0.5904   21.6669 C   0  0  0  0  0  0  0  0  0  0  0  0
    4.4238    1.3598   22.1136 C   0  0  0  0  0  0  0  0  0  0  0  0
    3.6612    2.1085   21.1983 C   0  0  0  0  0  0  0  0  0  0  0  0
    3.9842    2.0866   19.8289 C   0  0  0  0  0  0  0  0  0  0  0  0
    5.0736    1.3154   19.3812 C   0  0  0  0  0  0  0  0  0  0  0  0
    5.4122    1.2751   18.0167 C   0  0  0  0  0  0  0  0  0  0  0  0
    6.4489    0.5642   17.5349 N   0  0  0  0  0  0  0  0  0  0  0  0
    7.2026   -0.1299   18.4104 C   0  0  0  0  0  0  0  0  0  0  0  0
    9.2885   -0.6160   22.6902 N   0  0  0  0  0  0  0  0  0  0  0  0
   10.2282    0.1784   23.4801 C   0  0  0  0  0  0  0  0  0  0  0  0
   11.6127    0.1046   22.9261 C   0  0  0  0  0  0  0  0  0  0  0  0
   12.7641    1.3370   23.3303 S   0  0  0  0  0  0  0  0  0  0  0  0
   13.9781    0.5712   22.3589 C   0  0  0  0  0  0  0  0  0  0  0  0
   13.5163   -0.5695   21.7611 C   0  0  0  0  0  0  0  0  0  0  0  0
   12.1584   -0.8332   22.0807 C   0  0  0  0  0  0  0  0  0  0  0  0
    9.2050   -2.0215   23.1122 C   0  0  0  0  0  0  0  0  0  0  0  0
    7.8721   -2.3978   23.7905 C   0  0  0  0  0  0  0  0  0  0  0  0
    8.0017   -3.2094   25.0982 C   0  0  0  0  0  0  0  0  0  0  0  0
    6.6146   -3.7369   25.5239 C   0  0  0  0  0  0  0  0  0  0  0  0
    6.6765   -4.5168   26.8458 C   0  0  0  0  0  0  0  0  0  0  0  0
    7.7044   -5.6532   26.7883 C   0  0  0  0  0  0  0  0  0  0  0  0
    9.0814   -5.1329   26.3621 C   0  0  0  0  0  0  0  0  0  0  0  0
    8.9988   -4.3905   25.0241 C   0  0  0  0  0  0  0  0  0  0  0  0
    7.2707   -1.6746   21.2711 H   0  0  0  0  0  0  0  0  0  0  0  0
    8.5498   -1.5766   20.0716 H   0  0  0  0  0  0  0  0  0  0  0  0
    6.0754    0.0238   22.3928 H   0  0  0  0  0  0  0  0  0  0  0  0
    4.1716    1.3674   23.1627 H   0  0  0  0  0  0  0  0  0  0  0  0
    2.8281    2.7008   21.5459 H   0  0  0  0  0  0  0  0  0  0  0  0
    3.4004    2.6650   19.1263 H   0  0  0  0  0  0  0  0  0  0  0  0
    4.8579    1.8466   17.2912 H   0  0  0  0  0  0  0  0  0  0  0  0
    8.0375   -0.6722   17.9919 H   0  0  0  0  0  0  0  0  0  0  0  0
   10.2304   -0.1512   24.5201 H   0  0  0  0  0  0  0  0  0  0  0  0
    9.9015    1.2188   23.5224 H   0  0  0  0  0  0  0  0  0  0  0  0
   14.9443    1.0381   22.2644 H   0  0  0  0  0  0  0  0  0  0  0  0
   14.0862   -1.2055   21.1005 H   0  0  0  0  0  0  0  0  0  0  0  0
   11.6400   -1.6919   21.6804 H   0  0  0  0  0  0  0  0  0  0  0  0
   10.0395   -2.2122   23.7842 H   0  0  0  0  0  0  0  0  0  0  0  0
    9.3890   -2.6785   22.2610 H   0  0  0  0  0  0  0  0  0  0  0  0
    7.2816   -2.9774   23.0806 H   0  0  0  0  0  0  0  0  0  0  0  0
    7.2870   -1.5003   23.9946 H   0  0  0  0  0  0  0  0  0  0  0  0
    8.3609   -2.5255   25.8690 H   0  0  0  0  0  0  0  0  0  0  0  0
    6.2085   -4.3825   24.7438 H   0  0  0  0  0  0  0  0  0  0  0  0
    5.9162   -2.9051   25.6277 H   0  0  0  0  0  0  0  0  0  0  0  0
    5.6929   -4.9145   27.0958 H   0  0  0  0  0  0  0  0  0  0  0  0
    6.9470   -3.8322   27.6476 H   0  0  0  0  0  0  0  0  0  0  0  0
    7.3624   -6.4065   26.0823 H   0  0  0  0  0  0  0  0  0  0  0  0
    7.7771   -6.1428   27.7593 H   0  0  0  0  0  0  0  0  0  0  0  0
    9.7859   -5.9582   26.2687 H   0  0  0  0  0  0  0  0  0  0  0  0
    9.4778   -4.4700   27.1313 H   0  0  0  0  0  0  0  0  0  0  0  0
   10.0059   -4.0666   24.7718 H   0  0  0  0  0  0  0  0  0  0  0  0
    8.6963   -5.0827   24.2377 H   0  0  0  0  0  0  0  0  0  0  0  0
  1  2  2  0  0  0  0
  2  3  1  0  0  0  0
  2 14  1  0  0  0  0
  3  4  1  0  0  0  0
  3 29  1  0  0  0  0
  3 30  1  0  0  0  0
  4  5  2  0  0  0  0
  4 13  1  0  0  0  0
  5  6  1  0  0  0  0
  5 10  1  0  0  0  0
  6  7  2  0  0  0  0
  6 31  1  0  0  0  0
  7  8  1  0  0  0  0
  7 32  1  0  0  0  0
  8  9  2  0  0  0  0
  8 33  1  0  0  0  0
  9 10  1  0  0  0  0
  9 34  1  0  0  0  0
 10 11  2  0  0  0  0
 11 12  1  0  0  0  0
 11 35  1  0  0  0  0
 12 13  2  0  0  0  0
 13 36  1  0  0  0  0
 14 15  1  0  0  0  0
 14 21  1  0  0  0  0
 15 16  1  0  0  0  0
 15 37  1  0  0  0  0
 15 38  1  0  0  0  0
 16 17  1  0  0  0  0
 16 20  2  0  0  0  0
 17 18  1  0  0  0  0
 18 19  2  0  0  0  0
 18 39  1  0  0  0  0
 19 20  1  0  0  0  0
 19 40  1  0  0  0  0
 20 41  1  0  0  0  0
 21 22  1  0  0  0  0
 21 42  1  0  0  0  0
 21 43  1  0  0  0  0
 22 23  1  0  0  0  0
 22 44  1  0  0  0  0
 22 45  1  0  0  0  0
 23 24  1  0  0  0  0
 23 28  1  0  0  0  0
 23 46  1  0  0  0  0
 24 25  1  0  0  0  0
 24 47  1  0  0  0  0
 24 48  1  0  0  0  0
 25 26  1  0  0  0  0
 25 49  1  0  0  0  0
 25 50  1  0  0  0  0
 26 27  1  0  0  0  0
 26 51  1  0  0  0  0
 26 52  1  0  0  0  0
 27 28  1  0  0  0  0
 27 53  1  0  0  0  0
 27 54  1  0  0  0  0
 28 55  1  0  0  0  0
 28 56  1  0  0  0  0
M  END
$$$$
