Mpro-x12171_ligand
 OpenBabel04052409413D

 40 43  0  0  1  0  0  0  0  0999 V2000
    8.8346    0.6100   21.1467 O   0  0  0  0  0  0  0  0  0  0  0  0
    8.3206   -0.4492   21.5199 C   0  0  0  0  0  0  0  0  0  0  0  0
    8.8966   -1.2302   22.7196 C   0  0  2  0  0  0  0  0  0  0  0  0
    8.0709   -0.9166   24.0006 C   0  0  0  0  0  0  0  0  0  0  0  0
    8.8781   -0.2515   25.1290 C   0  0  0  0  0  0  0  0  0  0  0  0
    9.8084    0.7400   24.6105 N   0  0  0  0  0  0  0  0  0  0  0  0
   10.3729   -0.8627   22.8721 C   0  0  0  0  0  0  0  0  0  0  0  0
   10.7509    0.1913   23.7352 C   0  0  0  0  0  0  0  0  0  0  0  0
   12.0773    0.6689   23.7205 C   0  0  0  0  0  0  0  0  0  0  0  0
   13.0406    0.0554   22.8981 C   0  0  0  0  0  0  0  0  0  0  0  0
   11.3523   -1.5122   22.0981 C   0  0  0  0  0  0  0  0  0  0  0  0
   12.6841   -1.0637   22.1213 C   0  0  0  0  0  0  0  0  0  0  0  0
   13.8626   -1.8633   21.1543 Cl  0  0  0  0  0  0  0  0  0  0  0  0
    7.2342   -0.9702   20.9268 N   0  0  0  0  0  0  0  0  0  0  0  0
    6.4853   -0.2552   19.9631 C   0  0  0  0  0  0  0  0  0  0  0  0
    5.3965    0.5694   20.3238 C   0  0  0  0  0  0  0  0  0  0  0  0
    4.9350    0.6657   21.6537 C   0  0  0  0  0  0  0  0  0  0  0  0
    3.8528    1.5094   21.9629 C   0  0  0  0  0  0  0  0  0  0  0  0
    3.2339    2.2676   20.9526 C   0  0  0  0  0  0  0  0  0  0  0  0
    3.6929    2.1879   19.6252 C   0  0  0  0  0  0  0  0  0  0  0  0
    4.7654    1.3309   19.3107 C   0  0  0  0  0  0  0  0  0  0  0  0
    5.2324    1.2119   17.9900 C   0  0  0  0  0  0  0  0  0  0  0  0
    6.2346    0.3859   17.6361 N   0  0  0  0  0  0  0  0  0  0  0  0
    6.8455   -0.3250   18.6060 C   0  0  0  0  0  0  0  0  0  0  0  0
    8.8330   -2.2980   22.5033 H   0  0  0  0  0  0  0  0  0  0  0  0
    7.6232   -1.8352   24.3811 H   0  0  0  0  0  0  0  0  0  0  0  0
    7.2270   -0.2645   23.7718 H   0  0  0  0  0  0  0  0  0  0  0  0
    9.4476   -1.0050   25.6746 H   0  0  0  0  0  0  0  0  0  0  0  0
    8.2091    0.2189   25.8501 H   0  0  0  0  0  0  0  0  0  0  0  0
   10.1224    1.4637   25.2429 H   0  0  0  0  0  0  0  0  0  0  0  0
   12.3704    1.4974   24.3431 H   0  0  0  0  0  0  0  0  0  0  0  0
   14.0567    0.4199   22.8899 H   0  0  0  0  0  0  0  0  0  0  0  0
   11.0738   -2.3373   21.4628 H   0  0  0  0  0  0  0  0  0  0  0  0
    6.8253   -1.8116   21.3089 H   0  0  0  0  0  0  0  0  0  0  0  0
    5.3881    0.0890   22.4441 H   0  0  0  0  0  0  0  0  0  0  0  0
    3.4958    1.5688   22.9790 H   0  0  0  0  0  0  0  0  0  0  0  0
    2.4061    2.9150   21.2005 H   0  0  0  0  0  0  0  0  0  0  0  0
    3.2200    2.7787   18.8525 H   0  0  0  0  0  0  0  0  0  0  0  0
    4.8036    1.7980   17.1939 H   0  0  0  0  0  0  0  0  0  0  0  0
    7.6654   -0.9518   18.2980 H   0  0  0  0  0  0  0  0  0  0  0  0
  1  2  2  0  0  0  0
  2  3  1  0  0  0  0
  2 14  1  0  0  0  0
  3  4  1  0  0  0  0
  3  7  1  0  0  0  0
  3 25  1  6  0  0  0
  4  5  1  0  0  0  0
  4 26  1  0  0  0  0
  4 27  1  0  0  0  0
  5  6  1  0  0  0  0
  5 28  1  0  0  0  0
  5 29  1  0  0  0  0
  6  8  1  0  0  0  0
  6 30  1  0  0  0  0
  7  8  2  0  0  0  0
  7 11  1  0  0  0  0
  8  9  1  0  0  0  0
  9 10  2  0  0  0  0
  9 31  1  0  0  0  0
 10 12  1  0  0  0  0
 10 32  1  0  0  0  0
 11 12  2  0  0  0  0
 11 33  1  0  0  0  0
 12 13  1  0  0  0  0
 14 15  1  0  0  0  0
 14 34  1  0  0  0  0
 15 16  2  0  0  0  0
 15 24  1  0  0  0  0
 16 17  1  0  0  0  0
 16 21  1  0  0  0  0
 17 18  2  0  0  0  0
 17 35  1  0  0  0  0
 18 19  1  0  0  0  0
 18 36  1  0  0  0  0
 19 20  2  0  0  0  0
 19 37  1  0  0  0  0
 20 21  1  0  0  0  0
 20 38  1  0  0  0  0
 21 22  2  0  0  0  0
 22 23  1  0  0  0  0
 22 39  1  0  0  0  0
 23 24  2  0  0  0  0
 24 40  1  0  0  0  0
M  END
$$$$
