Mpro-x10871_ligand
 OpenBabel04052409413D

 51 54  0  0  0  0  0  0  0  0999 V2000
   13.5837   -1.7962   22.6438 S   0  0  0  0  0  0  0  0  0  0  0  0
    8.1273   -4.2267   26.1697 N   0  0  0  0  0  0  0  0  0  0  0  0
    7.3693   -0.1715   18.6858 N   0  0  0  0  0  0  0  0  0  0  0  0
    6.9390   -0.0345   19.9689 N   0  0  0  0  0  0  0  0  0  0  0  0
    7.9436   -5.7010   28.0805 C   0  0  0  0  0  0  0  0  0  0  0  0
   12.7300   -0.0247   24.3065 C   0  0  0  0  0  0  0  0  0  0  0  0
    3.6242    2.3352   19.3983 C   0  0  0  0  0  0  0  0  0  0  0  0
    9.0182    1.4030   20.9529 O   0  0  0  0  0  0  0  0  0  0  0  0
    8.1249   -1.7551   25.7532 C   0  0  0  0  0  0  0  0  0  0  0  0
    7.7417   -4.3200   27.4516 C   0  0  0  0  0  0  0  0  0  0  0  0
    5.5764    1.0474   18.7003 C   0  0  0  0  0  0  0  0  0  0  0  0
    8.9582   -0.9738   23.5940 C   0  0  0  0  0  0  0  0  0  0  0  0
    9.1088   -2.3093   23.1678 C   0  0  0  0  0  0  0  0  0  0  0  0
    8.7492   -3.3580   24.0242 C   0  0  0  0  0  0  0  0  0  0  0  0
   12.1080   -0.9524   22.2832 C   0  0  0  0  0  0  0  0  0  0  0  0
   11.7836   -0.0271   23.2444 C   0  0  0  0  0  0  0  0  0  0  0  0
    4.9386    1.1518   21.0808 C   0  0  0  0  0  0  0  0  0  0  0  0
    4.4877    1.8814   18.3804 C   0  0  0  0  0  0  0  0  0  0  0  0
   10.5579    0.8453   23.2185 C   0  0  0  0  0  0  0  0  0  0  0  0
   13.7373   -0.9343   24.1431 C   0  0  0  0  0  0  0  0  0  0  0  0
    3.8430    1.9681   20.7434 C   0  0  0  0  0  0  0  0  0  0  0  0
    8.7647    0.3803   21.5908 C   0  0  0  0  0  0  0  0  0  0  0  0
    6.7932   -6.1330   28.9985 C   0  0  0  0  0  0  0  0  0  0  0  0
    9.3796    0.0940   22.7617 N   0  0  0  0  0  0  0  0  0  0  0  0
    7.2394   -3.4082   28.1088 O   0  0  0  0  0  0  0  0  0  0  0  0
    8.4510   -0.6996   24.8808 C   0  0  0  0  0  0  0  0  0  0  0  0
    8.2951   -3.0959   25.3319 C   0  0  0  0  0  0  0  0  0  0  0  0
    7.7078   -0.6023   21.0487 C   0  0  0  0  0  0  0  0  0  0  0  0
    5.7862    0.7126   20.0515 C   0  0  0  0  0  0  0  0  0  0  0  0
    6.5585    0.4798   17.9161 N   0  0  0  0  0  0  0  0  0  0  0  0
    8.4496   -5.0946   25.7552 H   0  0  0  0  0  0  0  0  0  0  0  0
    8.8793   -5.6831   28.6365 H   0  0  0  0  0  0  0  0  0  0  0  0
    8.0673   -6.4481   27.2967 H   0  0  0  0  0  0  0  0  0  0  0  0
   12.6239    0.6260   25.1532 H   0  0  0  0  0  0  0  0  0  0  0  0
    2.7963    2.9780   19.1415 H   0  0  0  0  0  0  0  0  0  0  0  0
    7.7861   -1.5060   26.7458 H   0  0  0  0  0  0  0  0  0  0  0  0
    9.5225   -2.5396   22.1970 H   0  0  0  0  0  0  0  0  0  0  0  0
    8.8823   -4.3699   23.6766 H   0  0  0  0  0  0  0  0  0  0  0  0
   11.5567   -1.2036   21.3909 H   0  0  0  0  0  0  0  0  0  0  0  0
    5.1259    0.8775   22.1082 H   0  0  0  0  0  0  0  0  0  0  0  0
    4.3320    2.1859   17.3576 H   0  0  0  0  0  0  0  0  0  0  0  0
   10.7604    1.7254   22.6072 H   0  0  0  0  0  0  0  0  0  0  0  0
   10.3553    1.2418   24.2145 H   0  0  0  0  0  0  0  0  0  0  0  0
   14.5547   -1.1529   24.8132 H   0  0  0  0  0  0  0  0  0  0  0  0
    3.1783    2.3268   21.5147 H   0  0  0  0  0  0  0  0  0  0  0  0
    6.9827   -7.1243   29.4109 H   0  0  0  0  0  0  0  0  0  0  0  0
    6.6698   -5.4487   29.8368 H   0  0  0  0  0  0  0  0  0  0  0  0
    5.8483   -6.1751   28.4564 H   0  0  0  0  0  0  0  0  0  0  0  0
    8.3417    0.3214   25.2171 H   0  0  0  0  0  0  0  0  0  0  0  0
    8.2013   -1.5024   20.6882 H   0  0  0  0  0  0  0  0  0  0  0  0
    7.0080   -0.8985   21.8314 H   0  0  0  0  0  0  0  0  0  0  0  0
  1 15  1  0  0  0  0
  1 20  1  0  0  0  0
  2 10  1  0  0  0  0
  2 27  1  0  0  0  0
  2 31  1  0  0  0  0
  3  4  1  0  0  0  0
  3 30  2  0  0  0  0
  4 28  1  0  0  0  0
  4 29  1  0  0  0  0
  5 10  1  0  0  0  0
  5 23  1  0  0  0  0
  5 32  1  0  0  0  0
  5 33  1  0  0  0  0
  6 16  1  0  0  0  0
  6 20  2  0  0  0  0
  6 34  1  0  0  0  0
  7 18  2  0  0  0  0
  7 21  1  0  0  0  0
  7 35  1  0  0  0  0
  8 22  2  0  0  0  0
  9 26  2  0  0  0  0
  9 27  1  0  0  0  0
  9 36  1  0  0  0  0
 10 25  2  0  0  0  0
 11 18  1  0  0  0  0
 11 29  2  0  0  0  0
 11 30  1  0  0  0  0
 12 13  2  0  0  0  0
 12 24  1  0  0  0  0
 12 26  1  0  0  0  0
 13 14  1  0  0  0  0
 13 37  1  0  0  0  0
 14 27  2  0  0  0  0
 14 38  1  0  0  0  0
 15 16  2  0  0  0  0
 15 39  1  0  0  0  0
 16 19  1  0  0  0  0
 17 21  2  0  0  0  0
 17 29  1  0  0  0  0
 17 40  1  0  0  0  0
 18 41  1  0  0  0  0
 19 24  1  0  0  0  0
 19 42  1  0  0  0  0
 19 43  1  0  0  0  0
 20 44  1  0  0  0  0
 21 45  1  0  0  0  0
 22 24  1  0  0  0  0
 22 28  1  0  0  0  0
 23 46  1  0  0  0  0
 23 47  1  0  0  0  0
 23 48  1  0  0  0  0
 26 49  1  0  0  0  0
 28 50  1  0  0  0  0
 28 51  1  0  0  0  0
M  END
$$$$
