Mpro-x1418_ligand
 OpenBabel04052409413D

 34 35  0  0  0  0  0  0  0  0999 V2000
    6.7127   -2.3591   20.9337 N   0  0  0  0  0  0  0  0  0  0  0  0
    6.3326   -1.9210   18.5186 C   0  0  0  0  0  0  0  0  0  0  0  0
    5.8648   -3.9756   19.5956 O   0  0  0  0  0  0  0  0  0  0  0  0
    6.3005   -2.8353   19.7396 C   0  0  0  0  0  0  0  0  0  0  0  0
    6.5847   -3.1234   22.1755 C   0  0  0  0  0  0  0  0  0  0  0  0
    7.4839   -1.1300   21.1266 C   0  0  0  0  0  0  0  0  0  0  0  0
    8.9020   -1.5034   21.5808 C   0  0  0  0  0  0  0  0  0  0  0  0
   10.1902   -2.6823   23.3717 C   0  0  0  0  0  0  0  0  0  0  0  0
   11.1071   -1.4847   23.4799 C   0  0  0  0  0  0  0  0  0  0  0  0
   12.1548   -1.2145   22.6974 C   0  0  0  0  0  0  0  0  0  0  0  0
   12.8982    0.0723   22.9621 C   0  0  0  0  0  0  0  0  0  0  0  0
   12.1873    0.7981   24.1212 C   0  0  0  0  0  0  0  0  0  0  0  0
    7.9843   -3.5233   22.6688 C   0  0  0  0  0  0  0  0  0  0  0  0
    8.8591   -2.3301   22.8200 N   0  3  0  0  0  0  0  0  0  0  0  0
   10.8284   -0.2560   24.6921 S   0  0  0  0  0  0  0  0  0  0  0  0
    6.0515   -2.4818   17.6328 H   0  0  0  0  0  0  0  0  0  0  0  0
    5.6246   -1.1065   18.6487 H   0  0  0  0  0  0  0  0  0  0  0  0
    7.3224   -1.5055   18.3335 H   0  0  0  0  0  0  0  0  0  0  0  0
    5.9544   -4.0053   22.0650 H   0  0  0  0  0  0  0  0  0  0  0  0
    6.0879   -2.5075   22.9260 H   0  0  0  0  0  0  0  0  0  0  0  0
    7.0001   -0.5208   21.8904 H   0  0  0  0  0  0  0  0  0  0  0  0
    7.5415   -0.4942   20.2457 H   0  0  0  0  0  0  0  0  0  0  0  0
    9.4549   -0.5785   21.7414 H   0  0  0  0  0  0  0  0  0  0  0  0
    9.4206   -2.0520   20.7933 H   0  0  0  0  0  0  0  0  0  0  0  0
   10.0675   -3.1072   24.3639 H   0  0  0  0  0  0  0  0  0  0  0  0
   10.6640   -3.4389   22.7514 H   0  0  0  0  0  0  0  0  0  0  0  0
   12.4661   -1.8499   21.8832 H   0  0  0  0  0  0  0  0  0  0  0  0
   12.8881    0.6770   22.0596 H   0  0  0  0  0  0  0  0  0  0  0  0
   13.9379   -0.1445   23.2041 H   0  0  0  0  0  0  0  0  0  0  0  0
   11.7904    1.7580   23.7959 H   0  0  0  0  0  0  0  0  0  0  0  0
   12.8772    0.9783   24.9401 H   0  0  0  0  0  0  0  0  0  0  0  0
    8.4396   -4.2226   21.9652 H   0  0  0  0  0  0  0  0  0  0  0  0
    7.8968   -4.0474   23.6179 H   0  0  0  0  0  0  0  0  0  0  0  0
    8.4129   -1.7450   23.5168 H   0  0  0  0  0  0  0  0  0  0  0  0
  1  4  1  0  0  0  0
  1  5  1  0  0  0  0
  1  6  1  0  0  0  0
  2  4  1  0  0  0  0
  2 16  1  0  0  0  0
  2 17  1  0  0  0  0
  2 18  1  0  0  0  0
  3  4  2  0  0  0  0
  5 13  1  0  0  0  0
  5 19  1  0  0  0  0
  5 20  1  0  0  0  0
  6  7  1  0  0  0  0
  6 21  1  0  0  0  0
  6 22  1  0  0  0  0
  7 14  1  0  0  0  0
  7 23  1  0  0  0  0
  7 24  1  0  0  0  0
  8  9  1  0  0  0  0
  8 14  1  0  0  0  0
  8 25  1  0  0  0  0
  8 26  1  0  0  0  0
  9 10  2  0  0  0  0
  9 15  1  0  0  0  0
 10 11  1  0  0  0  0
 10 27  1  0  0  0  0
 11 12  1  0  0  0  0
 11 28  1  0  0  0  0
 11 29  1  0  0  0  0
 12 15  1  0  0  0  0
 12 30  1  0  0  0  0
 12 31  1  0  0  0  0
 13 14  1  0  0  0  0
 13 32  1  0  0  0  0
 13 33  1  0  0  0  0
 14 34  1  0  0  0  0
M  CHG  1  14   1
M  END
$$$$
