Mpro-x10942_ligand
 OpenBabel04052409413D

 37 39  0  0  1  0  0  0  0  0999 V2000
    6.4757    0.7230   17.7097 N   0  0  0  0  0  0  0  0  0  0  0  0
    5.4742    0.7733   20.3461 C   0  0  0  0  0  0  0  0  0  0  0  0
   12.4495    0.6452   23.8908 C   0  0  0  0  0  0  0  0  0  0  0  0
    9.0529    1.0258   21.2258 O   0  0  0  0  0  0  0  0  0  0  0  0
    8.3432   -0.2360   24.1685 C   0  0  0  0  0  0  0  0  0  0  0  0
    4.7907    1.4248   19.3022 C   0  0  0  0  0  0  0  0  0  0  0  0
    8.5011    0.0035   21.6408 C   0  0  0  0  0  0  0  0  0  0  0  0
    6.6836    0.1074   20.0417 C   0  0  0  0  0  0  0  0  0  0  0  0
    7.1354    0.1041   18.7093 C   0  0  0  0  0  0  0  0  0  0  0  0
   11.0629    0.4166   23.8922 C   0  0  0  0  0  0  0  0  0  0  0  0
   12.7649   -1.0156   22.1407 C   0  0  0  0  0  0  0  0  0  0  0  0
    8.8844    1.1418   24.5788 C   0  0  0  0  0  0  0  0  0  0  0  0
   13.2992   -0.0508   23.0124 C   0  0  0  0  0  0  0  0  0  0  0  0
   11.3826   -1.2642   22.1402 C   0  0  0  0  0  0  0  0  0  0  0  0
    4.9346    0.8393   21.7621 C   0  0  0  0  0  0  0  0  0  0  0  0
    7.4314   -0.5402   21.0458 N   0  0  0  0  0  0  0  0  0  0  0  0
    5.7142    1.6731   22.5904 O   0  0  0  0  0  0  0  0  0  0  0  0
   10.2918    1.1144   24.7980 O   0  0  0  0  0  0  0  0  0  0  0  0
    9.0282   -0.7336   22.8858 C   0  0  1  0  0  0  0  0  0  0  0  0
    5.3361    1.3748   18.0081 C   0  0  0  0  0  0  0  0  0  0  0  0
   10.5269   -0.5302   22.9851 C   0  0  0  0  0  0  0  0  0  0  0  0
   13.7964   -1.8933   21.0775 Cl  0  0  0  0  0  0  0  0  0  0  0  0
   12.8571    1.3769   24.5621 H   0  0  0  0  0  0  0  0  0  0  0  0
    7.2602   -0.2045   24.0456 H   0  0  0  0  0  0  0  0  0  0  0  0
    8.5351   -0.9442   24.9753 H   0  0  0  0  0  0  0  0  0  0  0  0
    3.8809    1.9750   19.4891 H   0  0  0  0  0  0  0  0  0  0  0  0
    8.0568   -0.3930   18.4407 H   0  0  0  0  0  0  0  0  0  0  0  0
    8.3995    1.4676   25.4994 H   0  0  0  0  0  0  0  0  0  0  0  0
    8.6529    1.8968   23.8267 H   0  0  0  0  0  0  0  0  0  0  0  0
   14.3591    0.1494   23.0134 H   0  0  0  0  0  0  0  0  0  0  0  0
   10.9684   -2.0099   21.4807 H   0  0  0  0  0  0  0  0  0  0  0  0
    4.9086   -0.1636   22.1877 H   0  0  0  0  0  0  0  0  0  0  0  0
    3.9080    1.2057   21.7537 H   0  0  0  0  0  0  0  0  0  0  0  0
    7.0079   -1.3472   21.4887 H   0  0  0  0  0  0  0  0  0  0  0  0
    5.3527    1.6576   23.4661 H   0  0  0  0  0  0  0  0  0  0  0  0
    8.8377   -1.8007   22.7673 H   0  0  0  0  0  0  0  0  0  0  0  0
    4.8639    1.8945   17.1906 H   0  0  0  0  0  0  0  0  0  0  0  0
  1  9  2  0  0  0  0
  1 20  1  0  0  0  0
  2  6  1  0  0  0  0
  2  8  2  0  0  0  0
  2 15  1  0  0  0  0
  3 10  2  0  0  0  0
  3 13  1  0  0  0  0
  3 23  1  0  0  0  0
  4  7  2  0  0  0  0
  5 12  1  0  0  0  0
  5 19  1  0  0  0  0
  5 24  1  0  0  0  0
  5 25  1  0  0  0  0
  6 20  2  0  0  0  0
  6 26  1  0  0  0  0
  7 16  1  0  0  0  0
  7 19  1  0  0  0  0
  8  9  1  0  0  0  0
  8 16  1  0  0  0  0
  9 27  1  0  0  0  0
 10 18  1  0  0  0  0
 10 21  1  0  0  0  0
 11 13  2  0  0  0  0
 11 14  1  0  0  0  0
 11 22  1  0  0  0  0
 12 18  1  0  0  0  0
 12 28  1  0  0  0  0
 12 29  1  0  0  0  0
 13 30  1  0  0  0  0
 14 21  2  0  0  0  0
 14 31  1  0  0  0  0
 15 17  1  0  0  0  0
 15 32  1  0  0  0  0
 15 33  1  0  0  0  0
 16 34  1  0  0  0  0
 17 35  1  0  0  0  0
 19 21  1  0  0  0  0
 19 36  1  6  0  0  0
 20 37  1  0  0  0  0
M  END
$$$$
