Mpro-x12715_ligand
 OpenBabel04052409413D

 39 42  0  0  1  0  0  0  0  0999 V2000
   13.7872   -1.8334   20.8816 Cl  0  0  0  0  0  0  0  0  0  0  0  0
   12.8427   -0.8859   21.9663 C   0  0  0  0  0  0  0  0  0  0  0  0
   13.4709    0.0722   22.7796 C   0  0  0  0  0  0  0  0  0  0  0  0
   12.7109    0.8186   23.6953 C   0  0  0  0  0  0  0  0  0  0  0  0
   11.4467   -1.0588   22.0388 C   0  0  0  0  0  0  0  0  0  0  0  0
   10.6784   -0.2788   22.9298 C   0  0  0  0  0  0  0  0  0  0  0  0
   11.3270    0.6163   23.8127 C   0  0  0  0  0  0  0  0  0  0  0  0
   10.6432    1.2954   24.7908 O   0  0  0  0  0  0  0  0  0  0  0  0
    9.4823    0.6248   25.2595 C   0  0  0  0  0  0  0  0  0  0  0  0
    8.5097    0.4035   24.0988 C   0  0  0  0  0  0  0  0  0  0  0  0
    9.1540   -0.3558   22.9143 C   0  0  1  0  0  0  0  0  0  0  0  0
    8.6229    0.2309   21.5978 C   0  0  0  0  0  0  0  0  0  0  0  0
    9.1742    1.2012   21.0743 O   0  0  0  0  0  0  0  0  0  0  0  0
    7.5307   -0.3553   21.0893 N   0  0  0  0  0  0  0  0  0  0  0  0
    6.7964    0.1859   20.0167 C   0  0  0  0  0  0  0  0  0  0  0  0
    7.2610    0.0788   18.6960 C   0  0  0  0  0  0  0  0  0  0  0  0
    6.5905    0.5900   17.6441 N   0  0  0  0  0  0  0  0  0  0  0  0
    5.4239    1.2512   17.8263 C   0  0  0  0  0  0  0  0  0  0  0  0
    5.5797    0.8612   20.2252 C   0  0  0  0  0  0  0  0  0  0  0  0
    4.8124    1.1976   21.3375 N   0  0  0  0  0  0  0  0  0  0  0  0
    5.0661    0.9146   22.7338 C   0  0  0  0  0  0  0  0  0  0  0  0
    4.8718    1.4126   19.1183 C   0  0  0  0  0  0  0  0  0  0  0  0
    3.7125    2.0510   19.5238 N   0  0  0  0  0  0  0  0  0  0  0  0
    3.7641    1.8801   20.8404 C   0  0  0  0  0  0  0  0  0  0  0  0
   14.5347    0.2343   22.7125 H   0  0  0  0  0  0  0  0  0  0  0  0
   13.1894    1.5442   24.3235 H   0  0  0  0  0  0  0  0  0  0  0  0
   10.9566   -1.7791   21.4031 H   0  0  0  0  0  0  0  0  0  0  0  0
    9.0139    1.2301   26.0357 H   0  0  0  0  0  0  0  0  0  0  0  0
    9.7623   -0.3237   25.7205 H   0  0  0  0  0  0  0  0  0  0  0  0
    8.1688    1.3923   23.7870 H   0  0  0  0  0  0  0  0  0  0  0  0
    7.6179   -0.1220   24.4402 H   0  0  0  0  0  0  0  0  0  0  0  0
    8.8888   -1.4103   22.9670 H   0  0  0  0  0  0  0  0  0  0  0  0
    7.0840   -1.0778   21.6349 H   0  0  0  0  0  0  0  0  0  0  0  0
    8.1945   -0.4184   18.4740 H   0  0  0  0  0  0  0  0  0  0  0  0
    4.9553    1.6674   16.9510 H   0  0  0  0  0  0  0  0  0  0  0  0
    4.1250    0.8793   23.2816 H   0  0  0  0  0  0  0  0  0  0  0  0
    5.5597   -0.0490   22.8441 H   0  0  0  0  0  0  0  0  0  0  0  0
    5.6984    1.6945   23.1573 H   0  0  0  0  0  0  0  0  0  0  0  0
    2.9925    2.2769   21.4848 H   0  0  0  0  0  0  0  0  0  0  0  0
  1  2  1  0  0  0  0
  2  3  2  0  0  0  0
  2  5  1  0  0  0  0
  3  4  1  0  0  0  0
  3 25  1  0  0  0  0
  4  7  2  0  0  0  0
  4 26  1  0  0  0  0
  5  6  2  0  0  0  0
  5 27  1  0  0  0  0
  6  7  1  0  0  0  0
  6 11  1  0  0  0  0
  7  8  1  0  0  0  0
  8  9  1  0  0  0  0
  9 10  1  0  0  0  0
  9 28  1  0  0  0  0
  9 29  1  0  0  0  0
 10 11  1  0  0  0  0
 10 30  1  0  0  0  0
 10 31  1  0  0  0  0
 11 12  1  0  0  0  0
 11 32  1  1  0  0  0
 12 13  2  0  0  0  0
 12 14  1  0  0  0  0
 14 15  1  0  0  0  0
 14 33  1  0  0  0  0
 15 16  2  0  0  0  0
 15 19  1  0  0  0  0
 16 17  1  0  0  0  0
 16 34  1  0  0  0  0
 17 18  2  0  0  0  0
 18 22  1  0  0  0  0
 18 35  1  0  0  0  0
 19 20  1  0  0  0  0
 19 22  2  0  0  0  0
 20 21  1  0  0  0  0
 20 24  1  0  0  0  0
 21 36  1  0  0  0  0
 21 37  1  0  0  0  0
 21 38  1  0  0  0  0
 22 23  1  0  0  0  0
 23 24  2  0  0  0  0
 24 39  1  0  0  0  0
M  END
$$$$
