Mpro-x12740_ligand
 OpenBabel04052409413D

 40 41  0  0  1  0  0  0  0  0999 V2000
    8.7503    0.6118   20.8943 O   0  0  0  0  0  0  0  0  0  0  0  0
    7.9840   -0.1596   21.4715 C   0  0  0  0  0  0  0  0  0  0  0  0
    8.4045   -0.8367   22.7755 C   0  0  0  0  0  0  0  0  0  0  0  0
    9.8569   -0.7089   23.0541 N   0  3  1  0  0  0  0  0  0  0  0  0
   10.1525   -0.8011   24.5059 C   0  0  0  0  0  0  0  0  0  0  0  0
   11.6526   -0.6377   24.7846 C   0  0  0  0  0  0  0  0  0  0  0  0
   10.6677   -1.6609   22.2496 C   0  0  0  0  0  0  0  0  0  0  0  0
   12.1715   -1.4995   22.5132 C   0  0  0  0  0  0  0  0  0  0  0  0
   12.4620   -1.6839   24.0048 C   0  0  1  0  0  0  0  0  0  0  0  0
   13.9513   -1.5865   24.3189 C   0  0  0  0  0  0  0  0  0  0  0  0
    6.7444   -0.4312   21.0389 N   0  0  0  0  0  0  0  0  0  0  0  0
    6.1452    0.1978   19.9243 C   0  0  0  0  0  0  0  0  0  0  0  0
    4.9735    0.9694   20.0828 C   0  0  0  0  0  0  0  0  0  0  0  0
    4.3121    1.1301   21.4371 C   0  0  0  0  0  0  0  0  0  0  0  0
    4.4465    1.6250   18.9528 C   0  0  0  0  0  0  0  0  0  0  0  0
    5.0900    1.4529   17.7134 C   0  0  0  0  0  0  0  0  0  0  0  0
    6.1851    0.6839   17.5465 N   0  0  0  0  0  0  0  0  0  0  0  0
    6.7031    0.0773   18.6334 C   0  0  0  0  0  0  0  0  0  0  0  0
    8.1114   -1.8882   22.7699 H   0  0  0  0  0  0  0  0  0  0  0  0
    7.8347   -0.3599   23.5726 H   0  0  0  0  0  0  0  0  0  0  0  0
   10.1264    0.2259   22.7697 H   0  0  0  0  0  0  0  0  0  0  0  0
    9.8041   -1.7623   24.8880 H   0  0  0  0  0  0  0  0  0  0  0  0
    9.6012   -0.0265   25.0407 H   0  0  0  0  0  0  0  0  0  0  0  0
   11.8382   -0.7329   25.8523 H   0  0  0  0  0  0  0  0  0  0  0  0
   11.9737    0.3689   24.5122 H   0  0  0  0  0  0  0  0  0  0  0  0
   10.4650   -1.5030   21.1942 H   0  0  0  0  0  0  0  0  0  0  0  0
   10.3602   -2.6799   22.4826 H   0  0  0  0  0  0  0  0  0  0  0  0
   12.5061   -0.5113   22.1966 H   0  0  0  0  0  0  0  0  0  0  0  0
   12.7304   -2.2243   21.9210 H   0  0  0  0  0  0  0  0  0  0  0  0
   12.1282   -2.6814   24.2914 H   0  0  0  0  0  0  0  0  0  0  0  0
   14.5224   -2.3262   23.7576 H   0  0  0  0  0  0  0  0  0  0  0  0
   14.3160   -0.5960   24.0591 H   0  0  0  0  0  0  0  0  0  0  0  0
   14.1459   -1.7480   25.3796 H   0  0  0  0  0  0  0  0  0  0  0  0
    6.1395   -0.9664   21.6453 H   0  0  0  0  0  0  0  0  0  0  0  0
    3.3750    1.6811   21.3557 H   0  0  0  0  0  0  0  0  0  0  0  0
    4.0981    0.1563   21.8758 H   0  0  0  0  0  0  0  0  0  0  0  0
    4.9702    1.6721   22.1159 H   0  0  0  0  0  0  0  0  0  0  0  0
    3.5752    2.2587   19.0284 H   0  0  0  0  0  0  0  0  0  0  0  0
    4.7308    1.9650   16.8355 H   0  0  0  0  0  0  0  0  0  0  0  0
    7.5944   -0.5103   18.4676 H   0  0  0  0  0  0  0  0  0  0  0  0
  1  2  2  0  0  0  0
  2  3  1  0  0  0  0
  2 11  1  0  0  0  0
  3  4  1  0  0  0  0
  3 19  1  0  0  0  0
  3 20  1  0  0  0  0
  4  5  1  0  0  0  0
  4  7  1  0  0  0  0
  4 21  1  6  0  0  0
  5  6  1  0  0  0  0
  5 22  1  0  0  0  0
  5 23  1  0  0  0  0
  6  9  1  0  0  0  0
  6 24  1  0  0  0  0
  6 25  1  0  0  0  0
  7  8  1  0  0  0  0
  7 26  1  0  0  0  0
  7 27  1  0  0  0  0
  8  9  1  0  0  0  0
  8 28  1  0  0  0  0
  8 29  1  0  0  0  0
  9 10  1  0  0  0  0
  9 30  1  1  0  0  0
 10 31  1  0  0  0  0
 10 32  1  0  0  0  0
 10 33  1  0  0  0  0
 11 12  1  0  0  0  0
 11 34  1  0  0  0  0
 12 13  2  0  0  0  0
 12 18  1  0  0  0  0
 13 14  1  0  0  0  0
 13 15  1  0  0  0  0
 14 35  1  0  0  0  0
 14 36  1  0  0  0  0
 14 37  1  0  0  0  0
 15 16  2  0  0  0  0
 15 38  1  0  0  0  0
 16 17  1  0  0  0  0
 16 39  1  0  0  0  0
 17 18  2  0  0  0  0
 18 40  1  0  0  0  0
M  CHG  1   4   1
M  END
$$$$
