Mpro-x10387_ligand
 OpenBabel04052409413D

 36 38  0  0  1  0  0  0  0  0999 V2000
    9.3624   -0.5958   21.8872 N   0  0  0  0  0  0  0  0  0  0  0  0
   12.0414    4.4262   21.8733 N   0  0  0  0  0  0  0  0  0  0  0  0
    4.6270    1.5891   19.0672 N   0  0  0  0  0  0  0  0  0  0  0  0
   11.6770   -1.2319   22.1041 C   0  0  0  0  0  0  0  0  0  0  0  0
   12.0030    3.7576   23.1770 C   0  0  1  0  0  0  0  0  0  0  0  0
   12.8794    2.6373   23.2238 O   0  0  0  0  0  0  0  0  0  0  0  0
    5.2356    0.9569   20.0906 C   0  0  0  0  0  0  0  0  0  0  0  0
   10.6980   -0.2250   22.1821 C   0  0  0  0  0  0  0  0  0  0  0  0
    6.7956   -0.0134   18.5566 C   0  0  0  0  0  0  0  0  0  0  0  0
    6.3539    0.1251   19.8862 C   0  0  0  0  0  0  0  0  0  0  0  0
    7.0813   -0.5388   21.0390 C   0  0  0  0  0  0  0  0  0  0  0  0
   12.4245    1.3993   22.8304 C   0  0  0  0  0  0  0  0  0  0  0  0
   12.7917    5.4826   22.3235 C   0  0  0  0  0  0  0  0  0  0  0  0
   11.0697    1.0876   22.5658 C   0  0  0  0  0  0  0  0  0  0  0  0
   13.9635   -1.8870   22.2218 F   0  0  0  0  0  0  0  0  0  0  0  0
   12.7106    4.9739   23.7637 C   0  0  0  0  0  0  0  0  0  0  0  0
   13.3931    0.3863   22.7009 C   0  0  0  0  0  0  0  0  0  0  0  0
   13.0248   -0.9227   22.3411 C   0  0  0  0  0  0  0  0  0  0  0  0
    6.1822    0.6238   17.5388 N   0  0  0  0  0  0  0  0  0  0  0  0
    8.5718    1.3438   20.9946 O   0  0  0  0  0  0  0  0  0  0  0  0
   13.2822    6.4296   21.7505 O   0  0  0  0  0  0  0  0  0  0  0  0
    5.1366    1.3905   17.8509 C   0  0  0  0  0  0  0  0  0  0  0  0
    8.4147    0.1626   21.3138 C   0  0  0  0  0  0  0  0  0  0  0  0
    9.1425   -1.5744   22.0069 H   0  0  0  0  0  0  0  0  0  0  0  0
   11.6827    4.1836   20.9607 H   0  0  0  0  0  0  0  0  0  0  0  0
   11.4047   -2.2394   21.8265 H   0  0  0  0  0  0  0  0  0  0  0  0
   11.0101    3.6213   23.6067 H   0  0  0  0  0  0  0  0  0  0  0  0
    4.8359    1.1303   21.0783 H   0  0  0  0  0  0  0  0  0  0  0  0
    7.6581   -0.6147   18.3108 H   0  0  0  0  0  0  0  0  0  0  0  0
    7.2470   -1.5895   20.7986 H   0  0  0  0  0  0  0  0  0  0  0  0
    6.4655   -0.5072   21.9383 H   0  0  0  0  0  0  0  0  0  0  0  0
   10.3091    1.8430   22.6636 H   0  0  0  0  0  0  0  0  0  0  0  0
   13.6585    4.7134   24.2260 H   0  0  0  0  0  0  0  0  0  0  0  0
   12.0840    5.5593   24.4370 H   0  0  0  0  0  0  0  0  0  0  0  0
   14.4287    0.6203   22.8757 H   0  0  0  0  0  0  0  0  0  0  0  0
    4.6736    1.9181   17.0346 H   0  0  0  0  0  0  0  0  0  0  0  0
  1  8  1  0  0  0  0
  1 23  1  0  0  0  0
  1 24  1  0  0  0  0
  2  5  1  0  0  0  0
  2 13  1  0  0  0  0
  2 25  1  0  0  0  0
  3  7  2  0  0  0  0
  3 22  1  0  0  0  0
  4  8  2  0  0  0  0
  4 18  1  0  0  0  0
  4 26  1  0  0  0  0
  5  6  1  0  0  0  0
  5 16  1  0  0  0  0
  5 27  1  1  0  0  0
  6 12  1  0  0  0  0
  7 10  1  0  0  0  0
  7 28  1  0  0  0  0
  8 14  1  0  0  0  0
  9 10  2  0  0  0  0
  9 19  1  0  0  0  0
  9 29  1  0  0  0  0
 10 11  1  0  0  0  0
 11 23  1  0  0  0  0
 11 30  1  0  0  0  0
 11 31  1  0  0  0  0
 12 14  2  0  0  0  0
 12 17  1  0  0  0  0
 13 16  1  0  0  0  0
 13 21  2  0  0  0  0
 14 32  1  0  0  0  0
 15 18  1  0  0  0  0
 16 33  1  0  0  0  0
 16 34  1  0  0  0  0
 17 18  2  0  0  0  0
 17 35  1  0  0  0  0
 19 22  2  0  0  0  0
 20 23  2  0  0  0  0
 22 36  1  0  0  0  0
M  END
$$$$
