Mpro-x11812_ligand
 OpenBabel04052409413D

 43 46  0  0  0  0  0  0  0  0999 V2000
    5.6378   -2.8022   20.6408 O   0  0  0  0  0  0  0  0  0  0  0  0
    6.2425   -1.7423   20.7871 C   0  0  0  0  0  0  0  0  0  0  0  0
    5.9230   -0.6132   19.8485 C   0  0  0  0  0  0  0  0  0  0  0  0
    5.0125    0.4245   20.1808 C   0  0  0  0  0  0  0  0  0  0  0  0
    4.4061    0.5428   21.4534 C   0  0  0  0  0  0  0  0  0  0  0  0
    3.4618    1.5563   21.7003 C   0  0  0  0  0  0  0  0  0  0  0  0
    3.1167    2.4666   20.6859 C   0  0  0  0  0  0  0  0  0  0  0  0
    3.7299    2.3787   19.4229 C   0  0  0  0  0  0  0  0  0  0  0  0
    4.6739    1.3657   19.1753 C   0  0  0  0  0  0  0  0  0  0  0  0
    5.2826    1.2573   17.9125 C   0  0  0  0  0  0  0  0  0  0  0  0
    6.1735    0.2991   17.6076 N   0  0  0  0  0  0  0  0  0  0  0  0
    6.4698   -0.6157   18.5506 C   0  0  0  0  0  0  0  0  0  0  0  0
    7.1319   -1.5257   21.7838 N   0  0  0  0  0  0  0  0  0  0  0  0
    8.0376   -0.3738   21.8728 C   0  0  0  0  0  0  0  0  0  0  0  0
    9.4969   -0.8594   21.9146 C   0  0  0  0  0  0  0  0  0  0  0  0
    9.6930   -1.8294   22.9886 N   0  0  0  0  0  0  0  0  0  0  0  0
    8.7659   -2.9583   22.9814 C   0  0  0  0  0  0  0  0  0  0  0  0
    7.3077   -2.4692   22.9002 C   0  0  0  0  0  0  0  0  0  0  0  0
   10.9915   -2.0279   23.5053 C   0  0  0  0  0  0  0  0  0  0  0  0
   12.1421   -1.5954   22.8017 C   0  0  0  0  0  0  0  0  0  0  0  0
   13.4266   -1.7590   23.3507 C   0  0  0  0  0  0  0  0  0  0  0  0
   13.5877   -2.3613   24.6113 C   0  0  0  0  0  0  0  0  0  0  0  0
   12.4570   -2.8097   25.3171 C   0  0  0  0  0  0  0  0  0  0  0  0
   11.1702   -2.6434   24.7677 C   0  0  0  0  0  0  0  0  0  0  0  0
    4.6462   -0.1403   22.2528 H   0  0  0  0  0  0  0  0  0  0  0  0
    2.9954    1.6299   22.6724 H   0  0  0  0  0  0  0  0  0  0  0  0
    2.3819    3.2335   20.8775 H   0  0  0  0  0  0  0  0  0  0  0  0
    3.4628    3.0836   18.6483 H   0  0  0  0  0  0  0  0  0  0  0  0
    5.0563    1.9582   17.1237 H   0  0  0  0  0  0  0  0  0  0  0  0
    7.1614   -1.3760   18.2356 H   0  0  0  0  0  0  0  0  0  0  0  0
    7.8117    0.1867   22.7780 H   0  0  0  0  0  0  0  0  0  0  0  0
    7.9286    0.3297   21.0480 H   0  0  0  0  0  0  0  0  0  0  0  0
   10.1567   -0.0046   22.0546 H   0  0  0  0  0  0  0  0  0  0  0  0
    9.7596   -1.3227   20.9648 H   0  0  0  0  0  0  0  0  0  0  0  0
    8.8858   -3.5856   23.8629 H   0  0  0  0  0  0  0  0  0  0  0  0
    8.9887   -3.5831   22.1171 H   0  0  0  0  0  0  0  0  0  0  0  0
    6.6417   -3.3305   22.8355 H   0  0  0  0  0  0  0  0  0  0  0  0
    7.0401   -1.9577   23.8256 H   0  0  0  0  0  0  0  0  0  0  0  0
   12.0625   -1.1386   21.8273 H   0  0  0  0  0  0  0  0  0  0  0  0
   14.2850   -1.4195   22.7949 H   0  0  0  0  0  0  0  0  0  0  0  0
   14.5738   -2.4827   25.0346 H   0  0  0  0  0  0  0  0  0  0  0  0
   12.5756   -3.2791   26.2820 H   0  0  0  0  0  0  0  0  0  0  0  0
   10.3188   -2.9708   25.3449 H   0  0  0  0  0  0  0  0  0  0  0  0
  1  2  2  0  0  0  0
  2  3  1  0  0  0  0
  2 13  1  0  0  0  0
  3  4  2  0  0  0  0
  3 12  1  0  0  0  0
  4  5  1  0  0  0  0
  4  9  1  0  0  0  0
  5  6  2  0  0  0  0
  5 25  1  0  0  0  0
  6  7  1  0  0  0  0
  6 26  1  0  0  0  0
  7  8  2  0  0  0  0
  7 27  1  0  0  0  0
  8  9  1  0  0  0  0
  8 28  1  0  0  0  0
  9 10  2  0  0  0  0
 10 11  1  0  0  0  0
 10 29  1  0  0  0  0
 11 12  2  0  0  0  0
 12 30  1  0  0  0  0
 13 14  1  0  0  0  0
 13 18  1  0  0  0  0
 14 15  1  0  0  0  0
 14 31  1  0  0  0  0
 14 32  1  0  0  0  0
 15 16  1  0  0  0  0
 15 33  1  0  0  0  0
 15 34  1  0  0  0  0
 16 17  1  0  0  0  0
 16 19  1  0  0  0  0
 17 18  1  0  0  0  0
 17 35  1  0  0  0  0
 17 36  1  0  0  0  0
 18 37  1  0  0  0  0
 18 38  1  0  0  0  0
 19 20  2  0  0  0  0
 19 24  1  0  0  0  0
 20 21  1  0  0  0  0
 20 39  1  0  0  0  0
 21 22  2  0  0  0  0
 21 40  1  0  0  0  0
 22 23  1  0  0  0  0
 22 41  1  0  0  0  0
 23 24  2  0  0  0  0
 23 42  1  0  0  0  0
 24 43  1  0  0  0  0
M  END
$$$$
