Mpro-x12710_ligand
 OpenBabel04052409413D

 43 46  0  0  1  0  0  0  0  0999 V2000
   13.7948   -1.8185   21.2575 Cl  0  0  0  0  0  0  0  0  0  0  0  0
   12.5582   -1.1201   22.2274 C   0  0  0  0  0  0  0  0  0  0  0  0
   11.2455   -1.5839   22.0827 C   0  0  0  0  0  0  0  0  0  0  0  0
   12.8370   -0.0698   23.1194 C   0  0  0  0  0  0  0  0  0  0  0  0
   11.8079    0.4553   23.9272 C   0  0  0  0  0  0  0  0  0  0  0  0
   10.4739   -0.0118   23.8032 C   0  0  0  0  0  0  0  0  0  0  0  0
    9.4334    0.4924   24.6216 N   0  0  0  0  0  0  0  0  0  0  0  0
    9.7287    1.3789   25.7357 C   0  0  0  0  0  0  0  0  0  0  0  0
   10.2007   -1.0066   22.8246 C   0  0  0  0  0  0  0  0  0  0  0  0
    8.7727   -1.4208   22.5064 C   0  0  1  0  0  0  0  0  0  0  0  0
    7.9005   -1.2629   23.7592 C   0  0  0  0  0  0  0  0  0  0  0  0
    8.0423    0.1453   24.3443 C   0  0  0  0  0  0  0  0  0  0  0  0
    8.2462   -0.5503   21.3494 C   0  0  0  0  0  0  0  0  0  0  0  0
    8.7700    0.5343   21.0783 O   0  0  0  0  0  0  0  0  0  0  0  0
    7.1976   -1.0305   20.6682 N   0  0  0  0  0  0  0  0  0  0  0  0
    6.4777   -0.2490   19.7399 C   0  0  0  0  0  0  0  0  0  0  0  0
    5.3817    0.5504   20.1368 C   0  0  0  0  0  0  0  0  0  0  0  0
    4.9089    0.5776   21.4674 C   0  0  0  0  0  0  0  0  0  0  0  0
    3.8239    1.4035   21.8123 C   0  0  0  0  0  0  0  0  0  0  0  0
    3.2098    2.2105   20.8368 C   0  0  0  0  0  0  0  0  0  0  0  0
    3.6766    2.1943   19.5087 C   0  0  0  0  0  0  0  0  0  0  0  0
    4.7546    1.3588   19.1591 C   0  0  0  0  0  0  0  0  0  0  0  0
    5.2352    1.3090   17.8372 C   0  0  0  0  0  0  0  0  0  0  0  0
    6.2672    0.5313   17.4550 N   0  0  0  0  0  0  0  0  0  0  0  0
    6.8728   -0.2286   18.3901 C   0  0  0  0  0  0  0  0  0  0  0  0
   11.0318   -2.3584   21.3644 H   0  0  0  0  0  0  0  0  0  0  0  0
   13.8448    0.3058   23.2114 H   0  0  0  0  0  0  0  0  0  0  0  0
   12.0681    1.2300   24.6318 H   0  0  0  0  0  0  0  0  0  0  0  0
    8.8159    1.7082   26.2324 H   0  0  0  0  0  0  0  0  0  0  0  0
   10.3353    0.8547   26.4727 H   0  0  0  0  0  0  0  0  0  0  0  0
   10.2587    2.2707   25.4014 H   0  0  0  0  0  0  0  0  0  0  0  0
    8.7650   -2.4642   22.1883 H   0  0  0  0  0  0  0  0  0  0  0  0
    8.2156   -1.9819   24.5147 H   0  0  0  0  0  0  0  0  0  0  0  0
    6.8546   -1.4833   23.5430 H   0  0  0  0  0  0  0  0  0  0  0  0
    7.6237    0.8915   23.6681 H   0  0  0  0  0  0  0  0  0  0  0  0
    7.4630    0.2061   25.2650 H   0  0  0  0  0  0  0  0  0  0  0  0
    6.7944   -1.9159   20.9499 H   0  0  0  0  0  0  0  0  0  0  0  0
    5.3655   -0.0293   22.2335 H   0  0  0  0  0  0  0  0  0  0  0  0
    3.4631    1.4184   22.8294 H   0  0  0  0  0  0  0  0  0  0  0  0
    2.3816    2.8470   21.1099 H   0  0  0  0  0  0  0  0  0  0  0  0
    3.2074    2.8216   18.7633 H   0  0  0  0  0  0  0  0  0  0  0  0
    4.8039    1.9270   17.0662 H   0  0  0  0  0  0  0  0  0  0  0  0
    7.7106   -0.8233   18.0568 H   0  0  0  0  0  0  0  0  0  0  0  0
  1  2  1  0  0  0  0
  2  3  2  0  0  0  0
  2  4  1  0  0  0  0
  3  9  1  0  0  0  0
  3 26  1  0  0  0  0
  4  5  2  0  0  0  0
  4 27  1  0  0  0  0
  5  6  1  0  0  0  0
  5 28  1  0  0  0  0
  6  7  1  0  0  0  0
  6  9  2  0  0  0  0
  7  8  1  0  0  0  0
  7 12  1  0  0  0  0
  8 29  1  0  0  0  0
  8 30  1  0  0  0  0
  8 31  1  0  0  0  0
  9 10  1  0  0  0  0
 10 11  1  0  0  0  0
 10 13  1  0  0  0  0
 10 32  1  6  0  0  0
 11 12  1  0  0  0  0
 11 33  1  0  0  0  0
 11 34  1  0  0  0  0
 12 35  1  0  0  0  0
 12 36  1  0  0  0  0
 13 14  2  0  0  0  0
 13 15  1  0  0  0  0
 15 16  1  0  0  0  0
 15 37  1  0  0  0  0
 16 17  2  0  0  0  0
 16 25  1  0  0  0  0
 17 18  1  0  0  0  0
 17 22  1  0  0  0  0
 18 19  2  0  0  0  0
 18 38  1  0  0  0  0
 19 20  1  0  0  0  0
 19 39  1  0  0  0  0
 20 21  2  0  0  0  0
 20 40  1  0  0  0  0
 21 22  1  0  0  0  0
 21 41  1  0  0  0  0
 22 23  2  0  0  0  0
 23 24  1  0  0  0  0
 23 42  1  0  0  0  0
 24 25  2  0  0  0  0
 25 43  1  0  0  0  0
M  END
$$$$
