Mpro-x0830_ligand
 OpenBabel04052409413D

 41 43  0  0  0  0  0  0  0  0999 V2000
    6.7169   -2.4493   21.1211 N   0  0  0  0  0  0  0  0  0  0  0  0
    6.2456   -4.6869   20.2036 C   0  0  0  0  0  0  0  0  0  0  0  0
    5.9815   -2.6590   18.9823 O   0  0  0  0  0  0  0  0  0  0  0  0
    6.2680   -3.1625   20.0676 C   0  0  0  0  0  0  0  0  0  0  0  0
   11.7865    2.1805   24.4774 C   0  0  0  0  0  0  0  0  0  0  0  0
   10.6818    2.4197   25.3128 C   0  0  0  0  0  0  0  0  0  0  0  0
    9.7866    1.3780   25.6070 C   0  0  0  0  0  0  0  0  0  0  0  0
    9.9642    0.1113   25.0214 C   0  0  0  0  0  0  0  0  0  0  0  0
   11.0494   -0.1337   24.1466 C   0  0  0  0  0  0  0  0  0  0  0  0
    7.9459   -3.2993   23.0456 C   0  0  0  0  0  0  0  0  0  0  0  0
    6.5750   -2.8864   22.5084 C   0  0  0  0  0  0  0  0  0  0  0  0
    7.5776   -1.2741   20.9892 C   0  0  0  0  0  0  0  0  0  0  0  0
    8.9784   -1.6185   21.5532 C   0  0  0  0  0  0  0  0  0  0  0  0
   10.1931   -2.4931   23.5862 C   0  0  0  0  0  0  0  0  0  0  0  0
   11.2105   -1.3724   23.4758 C   0  0  0  0  0  0  0  0  0  0  0  0
   12.3236   -1.5730   22.6354 C   0  0  0  0  0  0  0  0  0  0  0  0
   13.2785   -0.5618   22.4631 C   0  0  0  0  0  0  0  0  0  0  0  0
   13.1044    0.6827   23.0900 C   0  0  0  0  0  0  0  0  0  0  0  0
   11.9850    0.9066   23.9117 C   0  0  0  0  0  0  0  0  0  0  0  0
    8.8948   -2.1667   22.9411 N   0  3  0  0  0  0  0  0  0  0  0  0
    5.9970   -5.1582   19.2546 H   0  0  0  0  0  0  0  0  0  0  0  0
    7.2200   -5.0578   20.5191 H   0  0  0  0  0  0  0  0  0  0  0  0
    5.5081   -5.0243   20.9296 H   0  0  0  0  0  0  0  0  0  0  0  0
   12.4674    2.9854   24.2484 H   0  0  0  0  0  0  0  0  0  0  0  0
   10.5178    3.4023   25.7258 H   0  0  0  0  0  0  0  0  0  0  0  0
    8.9477    1.5582   26.2628 H   0  0  0  0  0  0  0  0  0  0  0  0
    9.2355   -0.6525   25.2425 H   0  0  0  0  0  0  0  0  0  0  0  0
    8.3333   -4.1525   22.4896 H   0  0  0  0  0  0  0  0  0  0  0  0
    7.8536   -3.6237   24.0792 H   0  0  0  0  0  0  0  0  0  0  0  0
    5.8534   -3.6935   22.6310 H   0  0  0  0  0  0  0  0  0  0  0  0
    6.1852   -2.0597   23.1023 H   0  0  0  0  0  0  0  0  0  0  0  0
    7.1407   -0.4415   21.5413 H   0  0  0  0  0  0  0  0  0  0  0  0
    7.6682   -0.9482   19.9528 H   0  0  0  0  0  0  0  0  0  0  0  0
    9.5899   -0.7176   21.5306 H   0  0  0  0  0  0  0  0  0  0  0  0
    9.4714   -2.3524   20.9149 H   0  0  0  0  0  0  0  0  0  0  0  0
   10.0358   -2.7167   24.6393 H   0  0  0  0  0  0  0  0  0  0  0  0
   10.5974   -3.4036   23.1453 H   0  0  0  0  0  0  0  0  0  0  0  0
   12.4520   -2.5072   22.1198 H   0  0  0  0  0  0  0  0  0  0  0  0
   14.1257   -0.7326   21.8186 H   0  0  0  0  0  0  0  0  0  0  0  0
   13.8269    1.4688   22.9305 H   0  0  0  0  0  0  0  0  0  0  0  0
    8.4969   -1.4206   23.4930 H   0  0  0  0  0  0  0  0  0  0  0  0
  1  4  1  0  0  0  0
  1 11  1  0  0  0  0
  1 12  1  0  0  0  0
  2  4  1  0  0  0  0
  2 21  1  0  0  0  0
  2 22  1  0  0  0  0
  2 23  1  0  0  0  0
  3  4  2  0  0  0  0
  5  6  2  0  0  0  0
  5 19  1  0  0  0  0
  5 24  1  0  0  0  0
  6  7  1  0  0  0  0
  6 25  1  0  0  0  0
  7  8  2  0  0  0  0
  7 26  1  0  0  0  0
  8  9  1  0  0  0  0
  8 27  1  0  0  0  0
  9 15  2  0  0  0  0
  9 19  1  0  0  0  0
 10 11  1  0  0  0  0
 10 20  1  0  0  0  0
 10 28  1  0  0  0  0
 10 29  1  0  0  0  0
 11 30  1  0  0  0  0
 11 31  1  0  0  0  0
 12 13  1  0  0  0  0
 12 32  1  0  0  0  0
 12 33  1  0  0  0  0
 13 20  1  0  0  0  0
 13 34  1  0  0  0  0
 13 35  1  0  0  0  0
 14 15  1  0  0  0  0
 14 20  1  0  0  0  0
 14 36  1  0  0  0  0
 14 37  1  0  0  0  0
 15 16  1  0  0  0  0
 16 17  2  0  0  0  0
 16 38  1  0  0  0  0
 17 18  1  0  0  0  0
 17 39  1  0  0  0  0
 18 19  2  0  0  0  0
 18 40  1  0  0  0  0
 20 41  1  0  0  0  0
M  CHG  1  20   1
M  END
$$$$
