Mpro-x11294_ligand
 OpenBabel04052409413D

 47 49  0  0  0  0  0  0  0  0999 V2000
    6.2100    1.0235   16.7870 O   0  0  0  0  0  0  0  0  0  0  0  0
    5.7155    0.8103   17.8850 C   0  0  0  0  0  0  0  0  0  0  0  0
    6.1288   -0.2697   18.7771 C   0  0  0  0  0  0  0  0  0  0  0  0
    4.7322    1.5992   18.3428 N   0  0  0  0  0  0  0  0  0  0  0  0
    4.1269    1.5010   19.6117 C   0  0  0  0  0  0  0  0  0  0  0  0
    4.5428    0.5025   20.5271 C   0  0  0  0  0  0  0  0  0  0  0  0
    3.9536    0.4824   21.8258 C   0  0  0  0  0  0  0  0  0  0  0  0
    4.3860   -0.4409   22.7551 O   0  0  0  0  0  0  0  0  0  0  0  0
    3.9908   -0.2847   24.1087 C   0  0  0  0  0  0  0  0  0  0  0  0
    2.9267    1.4156   22.1275 C   0  0  0  0  0  0  0  0  0  0  0  0
    2.5105    2.3751   21.1899 C   0  0  0  0  0  0  0  0  0  0  0  0
    3.1221    2.4261   19.9312 C   0  0  0  0  0  0  0  0  0  0  0  0
    5.5992   -0.4189   20.0107 C   0  0  0  0  0  0  0  0  0  0  0  0
    5.9580   -1.6106   20.7626 C   0  0  0  0  0  0  0  0  0  0  0  0
    5.2793   -2.6337   20.8198 O   0  0  0  0  0  0  0  0  0  0  0  0
    7.1154   -1.4742   21.4226 N   0  0  0  0  0  0  0  0  0  0  0  0
    7.6601   -2.4807   22.3273 C   0  0  0  0  0  0  0  0  0  0  0  0
    9.1838   -2.4052   22.3518 C   0  0  0  0  0  0  0  0  0  0  0  0
    9.5602   -1.1608   22.9173 O   0  0  0  0  0  0  0  0  0  0  0  0
   10.8808   -0.7824   22.8308 C   0  0  0  0  0  0  0  0  0  0  0  0
   11.1941    0.5245   23.2645 C   0  0  0  0  0  0  0  0  0  0  0  0
   10.1508    1.2929   23.7359 O   0  0  0  0  0  0  0  0  0  0  0  0
   10.3905    2.6711   23.9699 C   0  0  0  0  0  0  0  0  0  0  0  0
   11.9045   -1.6179   22.3196 C   0  0  0  0  0  0  0  0  0  0  0  0
   13.2247   -1.1492   22.2202 C   0  0  0  0  0  0  0  0  0  0  0  0
   13.5334    0.1482   22.6598 C   0  0  0  0  0  0  0  0  0  0  0  0
   12.5316    0.9812   23.1844 C   0  0  0  0  0  0  0  0  0  0  0  0
    6.8461   -0.9886   18.4111 H   0  0  0  0  0  0  0  0  0  0  0  0
    4.4263    2.3586   17.7471 H   0  0  0  0  0  0  0  0  0  0  0  0
    4.5243   -1.0089   24.7245 H   0  0  0  0  0  0  0  0  0  0  0  0
    4.2429    0.7102   24.4735 H   0  0  0  0  0  0  0  0  0  0  0  0
    2.9229   -0.4621   24.2413 H   0  0  0  0  0  0  0  0  0  0  0  0
    2.4320    1.4194   23.0855 H   0  0  0  0  0  0  0  0  0  0  0  0
    1.7342    3.0817   21.4443 H   0  0  0  0  0  0  0  0  0  0  0  0
    2.8250    3.1759   19.2126 H   0  0  0  0  0  0  0  0  0  0  0  0
    7.6269   -0.6066   21.3266 H   0  0  0  0  0  0  0  0  0  0  0  0
    7.3678   -3.4818   22.0072 H   0  0  0  0  0  0  0  0  0  0  0  0
    7.2526   -2.3319   23.3279 H   0  0  0  0  0  0  0  0  0  0  0  0
    9.5605   -2.5096   21.3329 H   0  0  0  0  0  0  0  0  0  0  0  0
    9.5899   -3.2198   22.9525 H   0  0  0  0  0  0  0  0  0  0  0  0
    9.4608    3.1531   24.2729 H   0  0  0  0  0  0  0  0  0  0  0  0
   11.1131    2.8175   24.7702 H   0  0  0  0  0  0  0  0  0  0  0  0
   10.7460    3.1710   23.0676 H   0  0  0  0  0  0  0  0  0  0  0  0
   11.6976   -2.6201   21.9842 H   0  0  0  0  0  0  0  0  0  0  0  0
   13.9964   -1.7856   21.8135 H   0  0  0  0  0  0  0  0  0  0  0  0
   14.5396    0.5216   22.5765 H   0  0  0  0  0  0  0  0  0  0  0  0
   12.8149    1.9725   23.5028 H   0  0  0  0  0  0  0  0  0  0  0  0
  1  2  2  0  0  0  0
  2  3  1  0  0  0  0
  2  4  1  0  0  0  0
  3 13  2  0  0  0  0
  3 28  1  0  0  0  0
  4  5  1  0  0  0  0
  4 29  1  0  0  0  0
  5  6  2  0  0  0  0
  5 12  1  0  0  0  0
  6  7  1  0  0  0  0
  6 13  1  0  0  0  0
  7  8  1  0  0  0  0
  7 10  2  0  0  0  0
  8  9  1  0  0  0  0
  9 30  1  0  0  0  0
  9 31  1  0  0  0  0
  9 32  1  0  0  0  0
 10 11  1  0  0  0  0
 10 33  1  0  0  0  0
 11 12  2  0  0  0  0
 11 34  1  0  0  0  0
 12 35  1  0  0  0  0
 13 14  1  0  0  0  0
 14 15  2  0  0  0  0
 14 16  1  0  0  0  0
 16 17  1  0  0  0  0
 16 36  1  0  0  0  0
 17 18  1  0  0  0  0
 17 37  1  0  0  0  0
 17 38  1  0  0  0  0
 18 19  1  0  0  0  0
 18 39  1  0  0  0  0
 18 40  1  0  0  0  0
 19 20  1  0  0  0  0
 20 21  2  0  0  0  0
 20 24  1  0  0  0  0
 21 22  1  0  0  0  0
 21 27  1  0  0  0  0
 22 23  1  0  0  0  0
 23 41  1  0  0  0  0
 23 42  1  0  0  0  0
 23 43  1  0  0  0  0
 24 25  2  0  0  0  0
 24 44  1  0  0  0  0
 25 26  1  0  0  0  0
 25 45  1  0  0  0  0
 26 27  2  0  0  0  0
 26 46  1  0  0  0  0
 27 47  1  0  0  0  0
M  END
$$$$
