Mpro-x11616_ligand
 OpenBabel04052409413D

 47 50  0  0  0  0  0  0  0  0999 V2000
    6.2045    1.0666   16.7130 O   0  0  0  0  0  0  0  0  0  0  0  0
    5.6586    0.8540   17.7859 C   0  0  0  0  0  0  0  0  0  0  0  0
    5.9392   -0.3050   18.6288 C   0  0  0  0  0  0  0  0  0  0  0  0
    4.7388    1.7151   18.2569 N   0  0  0  0  0  0  0  0  0  0  0  0
    4.0671    1.5983   19.4900 C   0  0  0  0  0  0  0  0  0  0  0  0
    4.3741    0.5218   20.3511 C   0  0  0  0  0  0  0  0  0  0  0  0
    3.7162    0.4505   21.6008 C   0  0  0  0  0  0  0  0  0  0  0  0
    2.7486    1.4113   21.9545 C   0  0  0  0  0  0  0  0  0  0  0  0
    2.4350    2.4618   21.0713 C   0  0  0  0  0  0  0  0  0  0  0  0
    3.1019    2.5597   19.8378 C   0  0  0  0  0  0  0  0  0  0  0  0
    5.3599   -0.4626   19.8368 C   0  0  0  0  0  0  0  0  0  0  0  0
    5.5593   -1.7241   20.5409 C   0  0  0  0  0  0  0  0  0  0  0  0
    5.1476   -2.7967   20.0925 O   0  0  0  0  0  0  0  0  0  0  0  0
    6.1798   -1.6379   21.7430 N   0  0  0  0  0  0  0  0  0  0  0  0
    6.2274   -2.7654   22.6834 C   0  0  0  0  0  0  0  0  0  0  0  0
    7.6674   -3.2974   22.7753 C   0  0  0  0  0  0  0  0  0  0  0  0
    7.0291   -0.5273   22.1988 C   0  0  0  0  0  0  0  0  0  0  0  0
    8.4919   -1.0041   22.2886 C   0  0  0  0  0  0  0  0  0  0  0  0
    8.5848   -2.2092   23.1125 N   0  0  0  0  0  0  0  0  0  0  0  0
    9.7847   -2.5075   23.7884 C   0  0  0  0  0  0  0  0  0  0  0  0
    9.7756   -3.3795   24.9031 C   0  0  0  0  0  0  0  0  0  0  0  0
   10.9575   -3.6493   25.6168 C   0  0  0  0  0  0  0  0  0  0  0  0
   12.1625   -3.0384   25.2327 C   0  0  0  0  0  0  0  0  0  0  0  0
   11.0121   -1.9243   23.3946 C   0  0  0  0  0  0  0  0  0  0  0  0
   12.1973   -2.1872   24.1115 C   0  0  0  0  0  0  0  0  0  0  0  0
   13.5127   -1.5604   23.7029 C   0  0  0  0  0  0  0  0  0  0  0  0
   14.4263   -2.5181   23.5839 F   0  0  0  0  0  0  0  0  0  0  0  0
   13.8875   -0.7244   24.6638 F   0  0  0  0  0  0  0  0  0  0  0  0
   13.4377   -0.8933   22.5500 F   0  0  0  0  0  0  0  0  0  0  0  0
    6.5985   -1.0713   18.2504 H   0  0  0  0  0  0  0  0  0  0  0  0
    4.5272    2.5316   17.6954 H   0  0  0  0  0  0  0  0  0  0  0  0
    3.9320   -0.3444   22.2955 H   0  0  0  0  0  0  0  0  0  0  0  0
    2.2432    1.3407   22.9065 H   0  0  0  0  0  0  0  0  0  0  0  0
    1.6912    3.1951   21.3431 H   0  0  0  0  0  0  0  0  0  0  0  0
    2.8727    3.3695   19.1593 H   0  0  0  0  0  0  0  0  0  0  0  0
    5.5451   -3.5717   22.4130 H   0  0  0  0  0  0  0  0  0  0  0  0
    5.8959   -2.4202   23.6639 H   0  0  0  0  0  0  0  0  0  0  0  0
    7.9651   -3.7111   21.8131 H   0  0  0  0  0  0  0  0  0  0  0  0
    7.7085   -4.1176   23.4897 H   0  0  0  0  0  0  0  0  0  0  0  0
    6.6830   -0.1999   23.1805 H   0  0  0  0  0  0  0  0  0  0  0  0
    6.9791    0.3517   21.5603 H   0  0  0  0  0  0  0  0  0  0  0  0
    9.0962   -0.2011   22.7111 H   0  0  0  0  0  0  0  0  0  0  0  0
    8.8843   -1.2178   21.2934 H   0  0  0  0  0  0  0  0  0  0  0  0
    8.8578   -3.8310   25.2483 H   0  0  0  0  0  0  0  0  0  0  0  0
   10.9325   -4.3107   26.4707 H   0  0  0  0  0  0  0  0  0  0  0  0
   13.0660   -3.2381   25.7905 H   0  0  0  0  0  0  0  0  0  0  0  0
   11.0570   -1.2724   22.5361 H   0  0  0  0  0  0  0  0  0  0  0  0
  1  2  2  0  0  0  0
  2  3  1  0  0  0  0
  2  4  1  0  0  0  0
  3 11  2  0  0  0  0
  3 30  1  0  0  0  0
  4  5  1  0  0  0  0
  4 31  1  0  0  0  0
  5  6  2  0  0  0  0
  5 10  1  0  0  0  0
  6  7  1  0  0  0  0
  6 11  1  0  0  0  0
  7  8  2  0  0  0  0
  7 32  1  0  0  0  0
  8  9  1  0  0  0  0
  8 33  1  0  0  0  0
  9 10  2  0  0  0  0
  9 34  1  0  0  0  0
 10 35  1  0  0  0  0
 11 12  1  0  0  0  0
 12 13  2  0  0  0  0
 12 14  1  0  0  0  0
 14 15  1  0  0  0  0
 14 17  1  0  0  0  0
 15 16  1  0  0  0  0
 15 36  1  0  0  0  0
 15 37  1  0  0  0  0
 16 19  1  0  0  0  0
 16 38  1  0  0  0  0
 16 39  1  0  0  0  0
 17 18  1  0  0  0  0
 17 40  1  0  0  0  0
 17 41  1  0  0  0  0
 18 19  1  0  0  0  0
 18 42  1  0  0  0  0
 18 43  1  0  0  0  0
 19 20  1  0  0  0  0
 20 21  2  0  0  0  0
 20 24  1  0  0  0  0
 21 22  1  0  0  0  0
 21 44  1  0  0  0  0
 22 23  2  0  0  0  0
 22 45  1  0  0  0  0
 23 25  1  0  0  0  0
 23 46  1  0  0  0  0
 24 25  2  0  0  0  0
 24 47  1  0  0  0  0
 25 26  1  0  0  0  0
 26 27  1  0  0  0  0
 26 28  1  0  0  0  0
 26 29  1  0  0  0  0
M  END
$$$$
