Mpro-x12423_ligand
 OpenBabel04052409413D

 52 55  0  0  0  0  0  0  0  0999 V2000
    8.9428    1.5826   21.1861 O   0  0  0  0  0  0  0  0  0  0  0  0
    8.7589    0.5293   21.7990 C   0  0  0  0  0  0  0  0  0  0  0  0
    8.0270   -0.6328   21.0957 C   0  0  0  0  0  0  0  0  0  0  0  0
    7.1723   -0.1484   20.0321 N   0  0  0  0  0  0  0  0  0  0  0  0
    5.9759    0.5328   20.1310 C   0  0  0  0  0  0  0  0  0  0  0  0
    5.1302    0.9500   21.1700 C   0  0  0  0  0  0  0  0  0  0  0  0
    3.9928    1.7149   20.8486 C   0  0  0  0  0  0  0  0  0  0  0  0
    3.7306    2.0567   19.5046 C   0  0  0  0  0  0  0  0  0  0  0  0
    4.5851    1.6191   18.4729 C   0  0  0  0  0  0  0  0  0  0  0  0
    5.7166    0.8370   18.7799 C   0  0  0  0  0  0  0  0  0  0  0  0
    6.6990    0.2954   17.9807 N   0  0  0  0  0  0  0  0  0  0  0  0
    7.5639   -0.2963   18.7391 N   0  0  0  0  0  0  0  0  0  0  0  0
    9.1857    0.3566   23.0725 N   0  0  0  0  0  0  0  0  0  0  0  0
    9.1303   -0.9086   23.7059 C   0  0  0  0  0  0  0  0  0  0  0  0
    8.2313   -1.1240   24.7652 C   0  0  0  0  0  0  0  0  0  0  0  0
    8.1672   -2.3784   25.3941 C   0  0  0  0  0  0  0  0  0  0  0  0
    9.9728   -1.9544   23.2803 C   0  0  0  0  0  0  0  0  0  0  0  0
    9.9143   -3.2038   23.9190 C   0  0  0  0  0  0  0  0  0  0  0  0
    9.0084   -3.4404   24.9845 C   0  0  0  0  0  0  0  0  0  0  0  0
    8.9544   -4.6932   25.6308 N   0  0  0  0  0  0  0  0  0  0  0  0
    9.8199   -5.7634   25.1721 C   0  0  0  0  0  0  0  0  0  0  0  0
    7.8587   -5.0099   26.5375 C   0  0  0  0  0  0  0  0  0  0  0  0
    9.7361    1.4841   23.8387 C   0  0  0  0  0  0  0  0  0  0  0  0
   11.1810    1.7740   23.4737 C   0  0  0  0  0  0  0  0  0  0  0  0
   11.5325    2.9910   22.8539 C   0  0  0  0  0  0  0  0  0  0  0  0
   12.8628    3.2228   22.4570 C   0  0  0  0  0  0  0  0  0  0  0  0
   13.2998    4.7125   21.7103 Cl  0  0  0  0  0  0  0  0  0  0  0  0
   13.8390    2.2324   22.6646 C   0  0  0  0  0  0  0  0  0  0  0  0
   13.4979    1.0250   23.2997 C   0  0  0  0  0  0  0  0  0  0  0  0
   12.1738    0.8047   23.7185 C   0  0  0  0  0  0  0  0  0  0  0  0
    7.3942   -1.1863   21.7903 H   0  0  0  0  0  0  0  0  0  0  0  0
    8.7613   -1.3297   20.6899 H   0  0  0  0  0  0  0  0  0  0  0  0
    5.3564    0.7008   22.1943 H   0  0  0  0  0  0  0  0  0  0  0  0
    3.3316    2.0551   21.6314 H   0  0  0  0  0  0  0  0  0  0  0  0
    2.8711    2.6606   19.2584 H   0  0  0  0  0  0  0  0  0  0  0  0
    4.3835    1.8914   17.4481 H   0  0  0  0  0  0  0  0  0  0  0  0
    7.5835   -0.3298   25.1011 H   0  0  0  0  0  0  0  0  0  0  0  0
    7.4648   -2.4947   26.2046 H   0  0  0  0  0  0  0  0  0  0  0  0
   10.6720   -1.7998   22.4707 H   0  0  0  0  0  0  0  0  0  0  0  0
   10.5910   -3.9677   23.5735 H   0  0  0  0  0  0  0  0  0  0  0  0
    9.6757   -6.6577   25.7698 H   0  0  0  0  0  0  0  0  0  0  0  0
    9.6079   -6.0199   24.1344 H   0  0  0  0  0  0  0  0  0  0  0  0
   10.8663   -5.4730   25.2643 H   0  0  0  0  0  0  0  0  0  0  0  0
    7.9601   -6.0135   26.9499 H   0  0  0  0  0  0  0  0  0  0  0  0
    7.8379   -4.3191   27.3769 H   0  0  0  0  0  0  0  0  0  0  0  0
    6.9025   -4.9548   26.0161 H   0  0  0  0  0  0  0  0  0  0  0  0
    9.6943    1.2718   24.9085 H   0  0  0  0  0  0  0  0  0  0  0  0
    9.1247    2.3771   23.6960 H   0  0  0  0  0  0  0  0  0  0  0  0
   10.7793    3.7400   22.6659 H   0  0  0  0  0  0  0  0  0  0  0  0
   14.8539    2.4006   22.3385 H   0  0  0  0  0  0  0  0  0  0  0  0
   14.2555    0.2748   23.4627 H   0  0  0  0  0  0  0  0  0  0  0  0
   11.9109   -0.1152   24.2152 H   0  0  0  0  0  0  0  0  0  0  0  0
  1  2  2  0  0  0  0
  2  3  1  0  0  0  0
  2 13  1  0  0  0  0
  3  4  1  0  0  0  0
  3 31  1  0  0  0  0
  3 32  1  0  0  0  0
  4  5  1  0  0  0  0
  4 12  1  0  0  0  0
  5  6  2  0  0  0  0
  5 10  1  0  0  0  0
  6  7  1  0  0  0  0
  6 33  1  0  0  0  0
  7  8  2  0  0  0  0
  7 34  1  0  0  0  0
  8  9  1  0  0  0  0
  8 35  1  0  0  0  0
  9 10  2  0  0  0  0
  9 36  1  0  0  0  0
 10 11  1  0  0  0  0
 11 12  2  0  0  0  0
 13 14  1  0  0  0  0
 13 23  1  0  0  0  0
 14 15  2  0  0  0  0
 14 17  1  0  0  0  0
 15 16  1  0  0  0  0
 15 37  1  0  0  0  0
 16 19  2  0  0  0  0
 16 38  1  0  0  0  0
 17 18  2  0  0  0  0
 17 39  1  0  0  0  0
 18 19  1  0  0  0  0
 18 40  1  0  0  0  0
 19 20  1  0  0  0  0
 20 21  1  0  0  0  0
 20 22  1  0  0  0  0
 21 41  1  0  0  0  0
 21 42  1  0  0  0  0
 21 43  1  0  0  0  0
 22 44  1  0  0  0  0
 22 45  1  0  0  0  0
 22 46  1  0  0  0  0
 23 24  1  0  0  0  0
 23 47  1  0  0  0  0
 23 48  1  0  0  0  0
 24 25  2  0  0  0  0
 24 30  1  0  0  0  0
 25 26  1  0  0  0  0
 25 49  1  0  0  0  0
 26 27  1  0  0  0  0
 26 28  2  0  0  0  0
 28 29  1  0  0  0  0
 28 50  1  0  0  0  0
 29 30  2  0  0  0  0
 29 51  1  0  0  0  0
 30 52  1  0  0  0  0
M  END
$$$$
