Mpro-x10423_ligand
 OpenBabel04052409413D

 40 41  0  0  1  0  0  0  0  0999 V2000
   13.7583   -2.0796   21.3230 Cl  0  0  0  0  0  0  0  0  0  0  0  0
   12.6660   -1.0660   22.1787 C   0  0  0  0  0  0  0  0  0  0  0  0
   13.1189    0.1115   22.8026 C   0  0  0  0  0  0  0  0  0  0  0  0
   12.1986    0.9707   23.4289 C   0  0  0  0  0  0  0  0  0  0  0  0
   10.8287    0.6543   23.4231 C   0  0  0  0  0  0  0  0  0  0  0  0
   11.2991   -1.3878   22.1843 C   0  0  0  0  0  0  0  0  0  0  0  0
   10.3684   -0.5215   22.7876 C   0  0  0  0  0  0  0  0  0  0  0  0
    8.8805   -0.8372   22.6781 C   0  0  1  0  0  0  0  0  0  0  0  0
    8.0977   -0.6179   23.9926 C   0  0  0  0  0  0  0  0  0  0  0  0
    8.6224   -1.4638   25.1656 C   0  0  0  0  0  0  0  0  0  0  0  0
    7.8320   -1.2291   26.4563 C   0  0  0  0  0  0  0  0  0  0  0  0
    8.2618   -0.0333   21.5233 C   0  0  0  0  0  0  0  0  0  0  0  0
    8.7534    1.0359   21.1517 O   0  0  0  0  0  0  0  0  0  0  0  0
    7.1774   -0.5683   20.9473 N   0  0  0  0  0  0  0  0  0  0  0  0
    6.4010    0.1172   19.9941 C   0  0  0  0  0  0  0  0  0  0  0  0
    5.2426    0.8345   20.3711 C   0  0  0  0  0  0  0  0  0  0  0  0
    4.7743    0.8832   21.8125 C   0  0  0  0  0  0  0  0  0  0  0  0
    4.5404    1.5388   19.3741 C   0  0  0  0  0  0  0  0  0  0  0  0
    5.0175    1.4859   18.0527 C   0  0  0  0  0  0  0  0  0  0  0  0
    6.1069    0.7834   17.6913 N   0  0  0  0  0  0  0  0  0  0  0  0
    6.7844    0.1105   18.6407 C   0  0  0  0  0  0  0  0  0  0  0  0
   14.1636    0.3731   22.7719 H   0  0  0  0  0  0  0  0  0  0  0  0
   12.5384    1.8868   23.8846 H   0  0  0  0  0  0  0  0  0  0  0  0
   10.1303    1.3373   23.8774 H   0  0  0  0  0  0  0  0  0  0  0  0
   10.9630   -2.2801   21.6794 H   0  0  0  0  0  0  0  0  0  0  0  0
    8.7932   -1.8930   22.4165 H   0  0  0  0  0  0  0  0  0  0  0  0
    7.0466   -0.8618   23.8317 H   0  0  0  0  0  0  0  0  0  0  0  0
    8.1118    0.4363   24.2721 H   0  0  0  0  0  0  0  0  0  0  0  0
    9.6706   -1.2330   25.3543 H   0  0  0  0  0  0  0  0  0  0  0  0
    8.5835   -2.5217   24.9030 H   0  0  0  0  0  0  0  0  0  0  0  0
    8.2190   -1.8473   27.2670 H   0  0  0  0  0  0  0  0  0  0  0  0
    7.8943   -0.1878   26.7724 H   0  0  0  0  0  0  0  0  0  0  0  0
    6.7795   -1.4799   26.3238 H   0  0  0  0  0  0  0  0  0  0  0  0
    6.8073   -1.4361   21.3168 H   0  0  0  0  0  0  0  0  0  0  0  0
    3.7736    1.3090   21.8861 H   0  0  0  0  0  0  0  0  0  0  0  0
    4.7486   -0.1176   22.2426 H   0  0  0  0  0  0  0  0  0  0  0  0
    5.4513    1.4951   22.4092 H   0  0  0  0  0  0  0  0  0  0  0  0
    3.6625    2.1204   19.6110 H   0  0  0  0  0  0  0  0  0  0  0  0
    4.5270    2.0364   17.2671 H   0  0  0  0  0  0  0  0  0  0  0  0
    7.6619   -0.4295   18.3150 H   0  0  0  0  0  0  0  0  0  0  0  0
  1  2  1  0  0  0  0
  2  3  2  0  0  0  0
  2  6  1  0  0  0  0
  3  4  1  0  0  0  0
  3 22  1  0  0  0  0
  4  5  2  0  0  0  0
  4 23  1  0  0  0  0
  5  7  1  0  0  0  0
  5 24  1  0  0  0  0
  6  7  2  0  0  0  0
  6 25  1  0  0  0  0
  7  8  1  0  0  0  0
  8  9  1  0  0  0  0
  8 12  1  0  0  0  0
  8 26  1  6  0  0  0
  9 10  1  0  0  0  0
  9 27  1  0  0  0  0
  9 28  1  0  0  0  0
 10 11  1  0  0  0  0
 10 29  1  0  0  0  0
 10 30  1  0  0  0  0
 11 31  1  0  0  0  0
 11 32  1  0  0  0  0
 11 33  1  0  0  0  0
 12 13  2  0  0  0  0
 12 14  1  0  0  0  0
 14 15  1  0  0  0  0
 14 34  1  0  0  0  0
 15 16  2  0  0  0  0
 15 21  1  0  0  0  0
 16 17  1  0  0  0  0
 16 18  1  0  0  0  0
 17 35  1  0  0  0  0
 17 36  1  0  0  0  0
 17 37  1  0  0  0  0
 18 19  2  0  0  0  0
 18 38  1  0  0  0  0
 19 20  1  0  0  0  0
 19 39  1  0  0  0  0
 20 21  2  0  0  0  0
 21 40  1  0  0  0  0
M  END
$$$$
