Mpro-x10338_ligand
 OpenBabel04052409413D

 34 36  0  0  1  0  0  0  0  0999 V2000
   13.7562   -1.9534   21.1249 Cl  0  0  0  0  0  0  0  0  0  0  0  0
   12.6992   -1.0430   22.1333 C   0  0  0  0  0  0  0  0  0  0  0  0
   13.2103    0.0050   22.9343 C   0  0  0  0  0  0  0  0  0  0  0  0
   12.3526    0.7666   23.7576 C   0  0  0  0  0  0  0  0  0  0  0  0
   11.3201   -1.3338   22.1399 C   0  0  0  0  0  0  0  0  0  0  0  0
   10.4870   -0.5369   22.9385 C   0  0  0  0  0  0  0  0  0  0  0  0
   10.9820    0.4688   23.7499 C   0  0  0  0  0  0  0  0  0  0  0  0
   10.0011    1.1109   24.4514 O   0  0  0  0  0  0  0  0  0  0  0  0
    8.7781    0.3905   24.2270 C   0  0  0  0  0  0  0  0  0  0  0  0
    8.9995   -0.5292   22.9977 C   0  0  1  0  0  0  0  0  0  0  0  0
    8.4504    0.1082   21.7120 C   0  0  0  0  0  0  0  0  0  0  0  0
    8.9658    1.1274   21.2456 O   0  0  0  0  0  0  0  0  0  0  0  0
    7.3980   -0.4965   21.1466 N   0  0  0  0  0  0  0  0  0  0  0  0
    6.6671    0.0776   20.0872 C   0  0  0  0  0  0  0  0  0  0  0  0
    5.4308    0.7240   20.3172 C   0  0  0  0  0  0  0  0  0  0  0  0
    4.8483    0.8300   21.7203 C   0  0  0  0  0  0  0  0  0  0  0  0
    3.8378    1.8062   21.8456 O   0  0  0  0  0  0  0  0  0  0  0  0
    7.1785    0.0344   18.7763 C   0  0  0  0  0  0  0  0  0  0  0  0
    6.5489    0.5949   17.7266 N   0  0  0  0  0  0  0  0  0  0  0  0
    5.3757    1.2143   17.9454 C   0  0  0  0  0  0  0  0  0  0  0  0
    4.7720    1.2998   19.2098 C   0  0  0  0  0  0  0  0  0  0  0  0
   14.2625    0.2330   22.9068 H   0  0  0  0  0  0  0  0  0  0  0  0
   12.7339    1.5743   24.3585 H   0  0  0  0  0  0  0  0  0  0  0  0
   10.9077   -2.1206   21.5289 H   0  0  0  0  0  0  0  0  0  0  0  0
    7.9429    1.0804   24.0967 H   0  0  0  0  0  0  0  0  0  0  0  0
    8.5705   -0.2089   25.1146 H   0  0  0  0  0  0  0  0  0  0  0  0
    8.6104   -1.5340   23.1587 H   0  0  0  0  0  0  0  0  0  0  0  0
    6.9927   -1.2973   21.6160 H   0  0  0  0  0  0  0  0  0  0  0  0
    5.6355    1.0831   22.4303 H   0  0  0  0  0  0  0  0  0  0  0  0
    4.4485   -0.1382   22.0159 H   0  0  0  0  0  0  0  0  0  0  0  0
    4.2416    2.6545   21.6888 H   0  0  0  0  0  0  0  0  0  0  0  0
    8.1256   -0.4420   18.5665 H   0  0  0  0  0  0  0  0  0  0  0  0
    4.9238    1.6803   17.0865 H   0  0  0  0  0  0  0  0  0  0  0  0
    3.8344    1.8244   19.3150 H   0  0  0  0  0  0  0  0  0  0  0  0
  1  2  1  0  0  0  0
  2  3  2  0  0  0  0
  2  5  1  0  0  0  0
  3  4  1  0  0  0  0
  3 22  1  0  0  0  0
  4  7  2  0  0  0  0
  4 23  1  0  0  0  0
  5  6  2  0  0  0  0
  5 24  1  0  0  0  0
  6  7  1  0  0  0  0
  6 10  1  0  0  0  0
  7  8  1  0  0  0  0
  8  9  1  0  0  0  0
  9 10  1  0  0  0  0
  9 25  1  0  0  0  0
  9 26  1  0  0  0  0
 10 11  1  0  0  0  0
 10 27  1  1  0  0  0
 11 12  2  0  0  0  0
 11 13  1  0  0  0  0
 13 14  1  0  0  0  0
 13 28  1  0  0  0  0
 14 15  2  0  0  0  0
 14 18  1  0  0  0  0
 15 16  1  0  0  0  0
 15 21  1  0  0  0  0
 16 17  1  0  0  0  0
 16 29  1  0  0  0  0
 16 30  1  0  0  0  0
 17 31  1  0  0  0  0
 18 19  2  0  0  0  0
 18 32  1  0  0  0  0
 19 20  1  0  0  0  0
 20 21  2  0  0  0  0
 20 33  1  0  0  0  0
 21 34  1  0  0  0  0
M  END
$$$$
