Mpro-x12699_ligand
 OpenBabel04052409413D

 43 46  0  0  1  0  0  0  0  0999 V2000
    9.0118    1.4127   21.2132 O   0  0  0  0  0  0  0  0  0  0  0  0
    8.7135    0.2535   21.5124 C   0  0  0  0  0  0  0  0  0  0  0  0
    9.3420   -0.4453   22.7407 C   0  0  1  0  0  0  0  0  0  0  0  0
   10.8467   -0.2004   22.7093 C   0  0  0  0  0  0  0  0  0  0  0  0
   11.6475   -0.8987   21.7840 C   0  0  0  0  0  0  0  0  0  0  0  0
   13.0347   -0.7067   21.7477 C   0  0  0  0  0  0  0  0  0  0  0  0
   13.9823   -1.6293   20.6497 Cl  0  0  0  0  0  0  0  0  0  0  0  0
   13.6312    0.2266   22.6116 C   0  0  0  0  0  0  0  0  0  0  0  0
   12.8365    0.9326   23.5315 C   0  0  0  0  0  0  0  0  0  0  0  0
   11.4491    0.7208   23.6031 C   0  0  0  0  0  0  0  0  0  0  0  0
   10.7477    1.4049   24.5713 O   0  0  0  0  0  0  0  0  0  0  0  0
    9.3407    1.4992   24.4010 C   0  0  0  0  0  0  0  0  0  0  0  0
    8.7283    0.1391   24.0365 C   0  0  0  0  0  0  0  0  0  0  0  0
    8.9901   -1.8341   22.6523 O   0  0  0  0  0  0  0  0  0  0  0  0
    9.7152   -2.7669   23.4408 C   0  0  0  0  0  0  0  0  0  0  0  0
    7.8523   -0.4799   20.7903 N   0  0  0  0  0  0  0  0  0  0  0  0
    6.9499    0.0602   19.8521 C   0  0  0  0  0  0  0  0  0  0  0  0
    5.7356    0.6686   20.2505 C   0  0  0  0  0  0  0  0  0  0  0  0
    5.3323    0.7463   21.6007 C   0  0  0  0  0  0  0  0  0  0  0  0
    4.1288    1.3909   21.9414 C   0  0  0  0  0  0  0  0  0  0  0  0
    3.3230    1.9658   20.9414 C   0  0  0  0  0  0  0  0  0  0  0  0
    3.7111    1.8832   19.5915 C   0  0  0  0  0  0  0  0  0  0  0  0
    4.9039    1.2199   19.2482 C   0  0  0  0  0  0  0  0  0  0  0  0
    5.2961    1.0932   17.9054 C   0  0  0  0  0  0  0  0  0  0  0  0
    6.4291    0.4756   17.5265 N   0  0  0  0  0  0  0  0  0  0  0  0
    7.2400   -0.0238   18.4805 C   0  0  0  0  0  0  0  0  0  0  0  0
   11.1930   -1.6210   21.1272 H   0  0  0  0  0  0  0  0  0  0  0  0
   14.6912    0.4119   22.5679 H   0  0  0  0  0  0  0  0  0  0  0  0
   13.2907    1.6552   24.1828 H   0  0  0  0  0  0  0  0  0  0  0  0
    9.1205    2.2571   23.6508 H   0  0  0  0  0  0  0  0  0  0  0  0
    8.9079    1.8604   25.3341 H   0  0  0  0  0  0  0  0  0  0  0  0
    8.9052   -0.5278   24.8778 H   0  0  0  0  0  0  0  0  0  0  0  0
    7.6442    0.2207   23.9540 H   0  0  0  0  0  0  0  0  0  0  0  0
    9.1526   -3.6978   23.4665 H   0  0  0  0  0  0  0  0  0  0  0  0
   10.6903   -2.9957   23.0146 H   0  0  0  0  0  0  0  0  0  0  0  0
    9.8728   -2.4311   24.4614 H   0  0  0  0  0  0  0  0  0  0  0  0
    7.7111   -1.4398   21.0734 H   0  0  0  0  0  0  0  0  0  0  0  0
    5.9307    0.3163   22.3881 H   0  0  0  0  0  0  0  0  0  0  0  0
    3.8263    1.4424   22.9757 H   0  0  0  0  0  0  0  0  0  0  0  0
    2.4046    2.4682   21.2088 H   0  0  0  0  0  0  0  0  0  0  0  0
    3.0946    2.3243   18.8224 H   0  0  0  0  0  0  0  0  0  0  0  0
    4.7004    1.5079   17.1109 H   0  0  0  0  0  0  0  0  0  0  0  0
    8.1515   -0.4931   18.1398 H   0  0  0  0  0  0  0  0  0  0  0  0
  1  2  2  0  0  0  0
  2 16  1  0  0  0  0
  3  2  1  6  0  0  0
  3  4  1  0  0  0  0
  3 13  1  0  0  0  0
  3 14  1  0  0  0  0
  4  5  2  0  0  0  0
  4 10  1  0  0  0  0
  5  6  1  0  0  0  0
  5 27  1  0  0  0  0
  6  7  1  0  0  0  0
  6  8  2  0  0  0  0
  8  9  1  0  0  0  0
  8 28  1  0  0  0  0
  9 10  2  0  0  0  0
  9 29  1  0  0  0  0
 10 11  1  0  0  0  0
 11 12  1  0  0  0  0
 12 13  1  0  0  0  0
 12 30  1  0  0  0  0
 12 31  1  0  0  0  0
 13 32  1  0  0  0  0
 13 33  1  0  0  0  0
 14 15  1  0  0  0  0
 15 34  1  0  0  0  0
 15 35  1  0  0  0  0
 15 36  1  0  0  0  0
 16 17  1  0  0  0  0
 16 37  1  0  0  0  0
 17 18  2  0  0  0  0
 17 26  1  0  0  0  0
 18 19  1  0  0  0  0
 18 23  1  0  0  0  0
 19 20  2  0  0  0  0
 19 38  1  0  0  0  0
 20 21  1  0  0  0  0
 20 39  1  0  0  0  0
 21 22  2  0  0  0  0
 21 40  1  0  0  0  0
 22 23  1  0  0  0  0
 22 41  1  0  0  0  0
 23 24  2  0  0  0  0
 24 25  1  0  0  0  0
 24 42  1  0  0  0  0
 25 26  2  0  0  0  0
 26 43  1  0  0  0  0
M  END
$$$$
