Mpro-x3303_ligand
 OpenBabel04052409413D

 44 47  0  0  0  0  0  0  0  0999 V2000
    6.3580    0.9430   16.8635 O   0  0  0  0  0  0  0  0  0  0  0  0
    5.9271    0.7641   17.9930 C   0  0  0  0  0  0  0  0  0  0  0  0
    6.3922   -0.2925   18.8904 C   0  0  0  0  0  0  0  0  0  0  0  0
    4.9756    1.5785   18.4791 N   0  0  0  0  0  0  0  0  0  0  0  0
    4.4179    1.4972   19.7691 C   0  0  0  0  0  0  0  0  0  0  0  0
    3.4290    2.4251   20.1413 C   0  0  0  0  0  0  0  0  0  0  0  0
    2.8647    2.3553   21.4263 C   0  0  0  0  0  0  0  0  0  0  0  0
    3.2906    1.3602   22.3266 C   0  0  0  0  0  0  0  0  0  0  0  0
    4.2875    0.4375   21.9516 C   0  0  0  0  0  0  0  0  0  0  0  0
    4.8632    0.4947   20.6609 C   0  0  0  0  0  0  0  0  0  0  0  0
    5.9201   -0.4163   20.1521 C   0  0  0  0  0  0  0  0  0  0  0  0
    6.3109   -1.5647   20.9719 C   0  0  0  0  0  0  0  0  0  0  0  0
    5.5157   -2.4629   21.2402 O   0  0  0  0  0  0  0  0  0  0  0  0
    7.6029   -1.6163   21.3985 N   0  0  0  0  0  0  0  0  0  0  0  0
    8.1214   -2.7711   22.1563 C   0  0  0  0  0  0  0  0  0  0  0  0
    8.6670   -2.3247   23.5240 C   0  0  0  0  0  0  0  0  0  0  0  0
    9.6761   -1.2868   23.3431 N   0  0  0  0  0  0  0  0  0  0  0  0
    9.2717   -0.1586   22.5092 C   0  0  0  0  0  0  0  0  0  0  0  0
    8.6642   -0.6211   21.1696 C   0  0  0  0  0  0  0  0  0  0  0  0
   11.0349   -1.6386   23.4732 C   0  0  0  0  0  0  0  0  0  0  0  0
   11.4785   -2.2921   24.6440 C   0  0  0  0  0  0  0  0  0  0  0  0
   12.8362   -2.6189   24.8221 C   0  0  0  0  0  0  0  0  0  0  0  0
   13.7673   -2.3123   23.8175 C   0  0  0  0  0  0  0  0  0  0  0  0
   13.3397   -1.6838   22.6351 C   0  0  0  0  0  0  0  0  0  0  0  0
   11.9830   -1.3454   22.4675 C   0  0  0  0  0  0  0  0  0  0  0  0
    7.1170   -0.9981   18.5121 H   0  0  0  0  0  0  0  0  0  0  0  0
    4.6497    2.3308   17.8837 H   0  0  0  0  0  0  0  0  0  0  0  0
    3.1066    3.1889   19.4480 H   0  0  0  0  0  0  0  0  0  0  0  0
    2.1061    3.0636   21.7223 H   0  0  0  0  0  0  0  0  0  0  0  0
    2.8528    1.3052   23.3125 H   0  0  0  0  0  0  0  0  0  0  0  0
    4.5954   -0.3109   22.6672 H   0  0  0  0  0  0  0  0  0  0  0  0
    8.9249   -3.2234   21.5783 H   0  0  0  0  0  0  0  0  0  0  0  0
    7.3862   -3.5604   22.3096 H   0  0  0  0  0  0  0  0  0  0  0  0
    9.0699   -3.1874   24.0548 H   0  0  0  0  0  0  0  0  0  0  0  0
    7.8593   -1.9270   24.1393 H   0  0  0  0  0  0  0  0  0  0  0  0
   10.0994    0.5296   22.3409 H   0  0  0  0  0  0  0  0  0  0  0  0
    8.5210    0.3991   23.0693 H   0  0  0  0  0  0  0  0  0  0  0  0
    8.3369    0.2606   20.6211 H   0  0  0  0  0  0  0  0  0  0  0  0
    9.4345   -1.0944   20.5639 H   0  0  0  0  0  0  0  0  0  0  0  0
   10.7744   -2.5306   25.4223 H   0  0  0  0  0  0  0  0  0  0  0  0
   13.1706   -3.1179   25.7184 H   0  0  0  0  0  0  0  0  0  0  0  0
   14.8021   -2.5808   23.9507 H   0  0  0  0  0  0  0  0  0  0  0  0
   14.0486   -1.4763   21.8493 H   0  0  0  0  0  0  0  0  0  0  0  0
   11.6670   -0.8818   21.5498 H   0  0  0  0  0  0  0  0  0  0  0  0
  1  2  2  0  0  0  0
  2  3  1  0  0  0  0
  2  4  1  0  0  0  0
  3 11  2  0  0  0  0
  3 26  1  0  0  0  0
  4  5  1  0  0  0  0
  4 27  1  0  0  0  0
  5  6  2  0  0  0  0
  5 10  1  0  0  0  0
  6  7  1  0  0  0  0
  6 28  1  0  0  0  0
  7  8  2  0  0  0  0
  7 29  1  0  0  0  0
  8  9  1  0  0  0  0
  8 30  1  0  0  0  0
  9 10  2  0  0  0  0
  9 31  1  0  0  0  0
 10 11  1  0  0  0  0
 11 12  1  0  0  0  0
 12 13  2  0  0  0  0
 12 14  1  0  0  0  0
 14 15  1  0  0  0  0
 14 19  1  0  0  0  0
 15 16  1  0  0  0  0
 15 32  1  0  0  0  0
 15 33  1  0  0  0  0
 16 17  1  0  0  0  0
 16 34  1  0  0  0  0
 16 35  1  0  0  0  0
 17 18  1  0  0  0  0
 17 20  1  0  0  0  0
 18 19  1  0  0  0  0
 18 36  1  0  0  0  0
 18 37  1  0  0  0  0
 19 38  1  0  0  0  0
 19 39  1  0  0  0  0
 20 21  2  0  0  0  0
 20 25  1  0  0  0  0
 21 22  1  0  0  0  0
 21 40  1  0  0  0  0
 22 23  2  0  0  0  0
 22 41  1  0  0  0  0
 23 24  1  0  0  0  0
 23 42  1  0  0  0  0
 24 25  2  0  0  0  0
 24 43  1  0  0  0  0
 25 44  1  0  0  0  0
M  END
$$$$
