Mpro-x11542_ligand
 OpenBabel04052409413D

 33 35  0  0  0  0  0  0  0  0999 V2000
    8.8869    0.8686   20.9898 O   0  0  0  0  0  0  0  0  0  0  0  0
    8.3627   -0.1770   21.3807 C   0  0  0  0  0  0  0  0  0  0  0  0
    8.9614   -0.9825   22.5409 C   0  0  0  0  0  0  0  0  0  0  0  0
   10.4345   -0.6785   22.7109 C   0  0  0  0  0  0  0  0  0  0  0  0
   10.8596    0.3949   23.5181 C   0  0  0  0  0  0  0  0  0  0  0  0
   12.2262    0.7247   23.5889 C   0  0  0  0  0  0  0  0  0  0  0  0
   13.1667   -0.0136   22.8441 C   0  0  0  0  0  0  0  0  0  0  0  0
   11.3821   -1.4410   22.0075 C   0  0  0  0  0  0  0  0  0  0  0  0
   12.7406   -1.0936   22.0479 C   0  0  0  0  0  0  0  0  0  0  0  0
   13.8611   -1.9791   21.0904 Cl  0  0  0  0  0  0  0  0  0  0  0  0
    7.2377   -0.6700   20.8469 N   0  0  0  0  0  0  0  0  0  0  0  0
    6.4878   -0.0047   19.8541 C   0  0  0  0  0  0  0  0  0  0  0  0
    5.2913    0.6747   20.1672 C   0  0  0  0  0  0  0  0  0  0  0  0
    4.7495    0.7174   21.4670 C   0  0  0  0  0  0  0  0  0  0  0  0
    3.5660    1.4497   21.6690 C   0  0  0  0  0  0  0  0  0  0  0  0
    2.9202    2.1137   20.6866 N   0  0  0  0  0  0  0  0  0  0  0  0
    3.4480    2.0765   19.4452 C   0  0  0  0  0  0  0  0  0  0  0  0
    4.6158    1.3554   19.1345 C   0  0  0  0  0  0  0  0  0  0  0  0
    5.1353    1.2954   17.8310 C   0  0  0  0  0  0  0  0  0  0  0  0
    6.2588    0.6187   17.5226 N   0  0  0  0  0  0  0  0  0  0  0  0
    6.9253   -0.0036   18.5162 C   0  0  0  0  0  0  0  0  0  0  0  0
    8.8342   -2.0503   22.3569 H   0  0  0  0  0  0  0  0  0  0  0  0
    8.4261   -0.7507   23.4609 H   0  0  0  0  0  0  0  0  0  0  0  0
   10.1274    0.9821   24.0496 H   0  0  0  0  0  0  0  0  0  0  0  0
   12.5503    1.5625   24.1853 H   0  0  0  0  0  0  0  0  0  0  0  0
   14.2100    0.2575   22.8716 H   0  0  0  0  0  0  0  0  0  0  0  0
   11.0579   -2.2757   21.4076 H   0  0  0  0  0  0  0  0  0  0  0  0
    6.8152   -1.4762   21.2908 H   0  0  0  0  0  0  0  0  0  0  0  0
    5.2245    0.2164   22.2965 H   0  0  0  0  0  0  0  0  0  0  0  0
    3.1214    1.4970   22.6504 H   0  0  0  0  0  0  0  0  0  0  0  0
    2.9162    2.6242   18.6811 H   0  0  0  0  0  0  0  0  0  0  0  0
    4.6597    1.8156   17.0156 H   0  0  0  0  0  0  0  0  0  0  0  0
    7.8372   -0.5113   18.2355 H   0  0  0  0  0  0  0  0  0  0  0  0
  1  2  2  0  0  0  0
  2  3  1  0  0  0  0
  2 11  1  0  0  0  0
  3  4  1  0  0  0  0
  3 22  1  0  0  0  0
  3 23  1  0  0  0  0
  4  5  2  0  0  0  0
  4  8  1  0  0  0  0
  5  6  1  0  0  0  0
  5 24  1  0  0  0  0
  6  7  2  0  0  0  0
  6 25  1  0  0  0  0
  7  9  1  0  0  0  0
  7 26  1  0  0  0  0
  8  9  2  0  0  0  0
  8 27  1  0  0  0  0
  9 10  1  0  0  0  0
 11 12  1  0  0  0  0
 11 28  1  0  0  0  0
 12 13  2  0  0  0  0
 12 21  1  0  0  0  0
 13 14  1  0  0  0  0
 13 18  1  0  0  0  0
 14 15  2  0  0  0  0
 14 29  1  0  0  0  0
 15 16  1  0  0  0  0
 15 30  1  0  0  0  0
 16 17  2  0  0  0  0
 17 18  1  0  0  0  0
 17 31  1  0  0  0  0
 18 19  2  0  0  0  0
 19 20  1  0  0  0  0
 19 32  1  0  0  0  0
 20 21  2  0  0  0  0
 21 33  1  0  0  0  0
M  END
$$$$
