Mpro-x10679_ligand
 OpenBabel04052409413D

 35 37  0  0  0  0  0  0  0  0999 V2000
    6.3752    0.8285   17.6610 N   0  0  0  0  0  0  0  0  0  0  0  0
    9.4805   -0.6336   23.4725 N   0  0  0  0  0  0  0  0  0  0  0  0
    5.0843    0.8365   20.1607 C   0  0  0  0  0  0  0  0  0  0  0  0
   12.7887    0.6423   23.8092 C   0  0  0  0  0  0  0  0  0  0  0  0
    9.2539    0.2005   24.5589 C   0  0  0  0  0  0  0  0  0  0  0  0
    4.5668    1.5752   19.0789 C   0  0  0  0  0  0  0  0  0  0  0  0
    8.0389   -0.4722   21.5026 C   0  0  0  0  0  0  0  0  0  0  0  0
    6.2518    0.0679   19.9560 C   0  0  0  0  0  0  0  0  0  0  0  0
    6.8533    0.0911   18.6808 C   0  0  0  0  0  0  0  0  0  0  0  0
   11.4250    0.3474   24.0192 C   0  0  0  0  0  0  0  0  0  0  0  0
   12.9451   -1.0409   22.0490 C   0  0  0  0  0  0  0  0  0  0  0  0
   10.4170    0.8260   24.9152 C   0  0  0  0  0  0  0  0  0  0  0  0
   13.5411   -0.0364   22.8327 C   0  0  0  0  0  0  0  0  0  0  0  0
   11.5792   -1.3243   22.2024 C   0  0  0  0  0  0  0  0  0  0  0  0
    4.4255    0.9378   21.5210 C   0  0  0  0  0  0  0  0  0  0  0  0
    6.8138   -0.6908   21.0077 N   0  0  0  0  0  0  0  0  0  0  0  0
    8.8002    0.3808   21.0407 O   0  0  0  0  0  0  0  0  0  0  0  0
    8.4501   -1.3184   22.7154 C   0  0  0  0  0  0  0  0  0  0  0  0
    5.2521    1.5440   17.8529 C   0  0  0  0  0  0  0  0  0  0  0  0
   10.8309   -0.6252   23.1666 C   0  0  0  0  0  0  0  0  0  0  0  0
   13.8637   -1.8950   20.8709 Cl  0  0  0  0  0  0  0  0  0  0  0  0
   13.2469    1.4164   24.3973 H   0  0  0  0  0  0  0  0  0  0  0  0
    8.2619    0.3219   24.9668 H   0  0  0  0  0  0  0  0  0  0  0  0
    3.6849    2.1881   19.1933 H   0  0  0  0  0  0  0  0  0  0  0  0
    7.7456   -0.4822   18.4764 H   0  0  0  0  0  0  0  0  0  0  0  0
   10.5475    1.5631   25.6921 H   0  0  0  0  0  0  0  0  0  0  0  0
   14.5734    0.2250   22.6774 H   0  0  0  0  0  0  0  0  0  0  0  0
   11.1058   -2.0625   21.5739 H   0  0  0  0  0  0  0  0  0  0  0  0
    4.4433   -0.0158   22.0446 H   0  0  0  0  0  0  0  0  0  0  0  0
    4.9491    1.6728   22.1320 H   0  0  0  0  0  0  0  0  0  0  0  0
    3.3874    1.2559   21.4262 H   0  0  0  0  0  0  0  0  0  0  0  0
    6.1946   -1.2961   21.5271 H   0  0  0  0  0  0  0  0  0  0  0  0
    7.5914   -1.4998   23.3638 H   0  0  0  0  0  0  0  0  0  0  0  0
    8.8255   -2.2872   22.3849 H   0  0  0  0  0  0  0  0  0  0  0  0
    4.9038    2.1237   17.0116 H   0  0  0  0  0  0  0  0  0  0  0  0
  1  9  2  0  0  0  0
  1 19  1  0  0  0  0
  2  5  1  0  0  0  0
  2 18  1  0  0  0  0
  2 20  1  0  0  0  0
  3  6  1  0  0  0  0
  3  8  2  0  0  0  0
  3 15  1  0  0  0  0
  4 10  2  0  0  0  0
  4 13  1  0  0  0  0
  4 22  1  0  0  0  0
  5 12  2  0  0  0  0
  5 23  1  0  0  0  0
  6 19  2  0  0  0  0
  6 24  1  0  0  0  0
  7 16  1  0  0  0  0
  7 17  2  0  0  0  0
  7 18  1  0  0  0  0
  8  9  1  0  0  0  0
  8 16  1  0  0  0  0
  9 25  1  0  0  0  0
 10 12  1  0  0  0  0
 10 20  1  0  0  0  0
 11 13  2  0  0  0  0
 11 14  1  0  0  0  0
 11 21  1  0  0  0  0
 12 26  1  0  0  0  0
 13 27  1  0  0  0  0
 14 20  2  0  0  0  0
 14 28  1  0  0  0  0
 15 29  1  0  0  0  0
 15 30  1  0  0  0  0
 15 31  1  0  0  0  0
 16 32  1  0  0  0  0
 18 33  1  0  0  0  0
 18 34  1  0  0  0  0
 19 35  1  0  0  0  0
M  END
$$$$
