Mpro-x2649_ligand
 OpenBabel04052409413D

 34 35  0  0  1  0  0  0  0  0999 V2000
   13.7529   -1.8704   21.1266 Cl  0  0  0  0  0  0  0  0  0  0  0  0
   12.6018   -1.0969   22.1437 C   0  0  0  0  0  0  0  0  0  0  0  0
   13.0013   -0.0716   23.0205 C   0  0  0  0  0  0  0  0  0  0  0  0
   12.0481    0.5618   23.8388 C   0  0  0  0  0  0  0  0  0  0  0  0
   10.6925    0.1891   23.7589 C   0  0  0  0  0  0  0  0  0  0  0  0
   11.2529   -1.4847   22.0851 C   0  0  0  0  0  0  0  0  0  0  0  0
   10.2835   -0.8256   22.8649 C   0  0  0  0  0  0  0  0  0  0  0  0
    8.8107   -1.1579   22.6437 C   0  0  1  0  0  0  0  0  0  0  0  0
    7.9563   -1.0733   23.9239 C   0  0  0  0  0  0  0  0  0  0  0  0
    8.2459   -0.2523   21.5342 C   0  0  0  0  0  0  0  0  0  0  0  0
    8.8238    0.7837   21.1938 O   0  0  0  0  0  0  0  0  0  0  0  0
    7.1114   -0.6687   20.9559 N   0  0  0  0  0  0  0  0  0  0  0  0
    6.4330    0.0590   19.9582 C   0  0  0  0  0  0  0  0  0  0  0  0
    5.3003    0.8458   20.2619 C   0  0  0  0  0  0  0  0  0  0  0  0
    4.7741    0.9568   21.6771 C   0  0  0  0  0  0  0  0  0  0  0  0
    4.6787    1.5536   19.2154 C   0  0  0  0  0  0  0  0  0  0  0  0
    5.2028    1.4290   17.9163 C   0  0  0  0  0  0  0  0  0  0  0  0
    6.2742    0.6682   17.6199 N   0  0  0  0  0  0  0  0  0  0  0  0
    6.8783    0.0030   18.6248 C   0  0  0  0  0  0  0  0  0  0  0  0
   14.0354    0.2309   23.0629 H   0  0  0  0  0  0  0  0  0  0  0  0
   12.3559    1.3546   24.5016 H   0  0  0  0  0  0  0  0  0  0  0  0
    9.9654    0.7164   24.3550 H   0  0  0  0  0  0  0  0  0  0  0  0
   10.9508   -2.2673   21.4099 H   0  0  0  0  0  0  0  0  0  0  0  0
    8.7608   -2.1871   22.2832 H   0  0  0  0  0  0  0  0  0  0  0  0
    6.9406   -1.4266   23.7433 H   0  0  0  0  0  0  0  0  0  0  0  0
    8.3787   -1.6933   24.7151 H   0  0  0  0  0  0  0  0  0  0  0  0
    7.8762   -0.0537   24.3014 H   0  0  0  0  0  0  0  0  0  0  0  0
    6.6693   -1.5121   21.2996 H   0  0  0  0  0  0  0  0  0  0  0  0
    3.8677    1.5602   21.7147 H   0  0  0  0  0  0  0  0  0  0  0  0
    4.5435   -0.0292   22.0733 H   0  0  0  0  0  0  0  0  0  0  0  0
    5.5206    1.4166   22.3247 H   0  0  0  0  0  0  0  0  0  0  0  0
    3.8262    2.1901   19.3973 H   0  0  0  0  0  0  0  0  0  0  0  0
    4.7767    1.9827   17.0965 H   0  0  0  0  0  0  0  0  0  0  0  0
    7.7426   -0.5869   18.3578 H   0  0  0  0  0  0  0  0  0  0  0  0
  1  2  1  0  0  0  0
  2  3  2  0  0  0  0
  2  6  1  0  0  0  0
  3  4  1  0  0  0  0
  3 20  1  0  0  0  0
  4  5  2  0  0  0  0
  4 21  1  0  0  0  0
  5  7  1  0  0  0  0
  5 22  1  0  0  0  0
  6  7  2  0  0  0  0
  6 23  1  0  0  0  0
  7  8  1  0  0  0  0
  8  9  1  0  0  0  0
  8 10  1  0  0  0  0
  8 24  1  6  0  0  0
  9 25  1  0  0  0  0
  9 26  1  0  0  0  0
  9 27  1  0  0  0  0
 10 11  2  0  0  0  0
 10 12  1  0  0  0  0
 12 13  1  0  0  0  0
 12 28  1  0  0  0  0
 13 14  2  0  0  0  0
 13 19  1  0  0  0  0
 14 15  1  0  0  0  0
 14 16  1  0  0  0  0
 15 29  1  0  0  0  0
 15 30  1  0  0  0  0
 15 31  1  0  0  0  0
 16 17  2  0  0  0  0
 16 32  1  0  0  0  0
 17 18  1  0  0  0  0
 17 33  1  0  0  0  0
 18 19  2  0  0  0  0
 19 34  1  0  0  0  0
M  END
$$$$
