Mpro-x0691_ligand
 OpenBabel04052409413D

 34 35  0  0  0  0  0  0  0  0999 V2000
    5.4641   -5.5579   24.3918 N   0  0  0  0  0  0  0  0  0  0  0  0
    2.9313   -1.9663   25.9234 C   0  0  0  0  0  0  0  0  0  0  0  0
    3.9167   -6.9502   25.9276 O   0  0  0  0  0  0  0  0  0  0  0  0
    1.5655   -2.2577   25.7343 C   0  0  0  0  0  0  0  0  0  0  0  0
    6.4740   -4.1726   20.8834 C   0  0  0  0  0  0  0  0  0  0  0  0
    7.1521   -2.8127   21.0450 C   0  0  0  0  0  0  0  0  0  0  0  0
    1.1421   -3.5916   25.5731 C   0  0  0  0  0  0  0  0  0  0  0  0
    2.0836   -4.6384   25.6122 C   0  0  0  0  0  0  0  0  0  0  0  0
    3.4471   -4.3422   25.8153 C   0  0  0  0  0  0  0  0  0  0  0  0
    3.8762   -3.0089   25.9652 C   0  0  0  0  0  0  0  0  0  0  0  0
    6.5485   -4.5635   24.2303 C   0  0  0  0  0  0  0  0  0  0  0  0
    7.4585   -4.9313   23.0491 C   0  0  0  0  0  0  0  0  0  0  0  0
    5.7468   -6.2476   22.0146 C   0  0  0  0  0  0  0  0  0  0  0  0
    4.7548   -5.9664   23.1588 C   0  0  0  0  0  0  0  0  0  0  0  0
    3.3349   -0.6815   26.0603 F   0  0  0  0  0  0  0  0  0  0  0  0
    6.6201   -5.0892   21.8635 N   0  0  0  0  0  0  0  0  0  0  0  0
    5.6072   -5.3471   26.9728 O   0  0  0  0  0  0  0  0  0  0  0  0
    5.7942   -4.3736   19.8775 O   0  0  0  0  0  0  0  0  0  0  0  0
    4.6412   -5.6712   25.9100 S   0  0  0  0  0  0  0  0  0  0  0  0
    0.8433   -1.4549   25.7050 H   0  0  0  0  0  0  0  0  0  0  0  0
    6.8632   -2.1422   20.2348 H   0  0  0  0  0  0  0  0  0  0  0  0
    6.8590   -2.3416   21.9836 H   0  0  0  0  0  0  0  0  0  0  0  0
    8.2380   -2.9131   21.0278 H   0  0  0  0  0  0  0  0  0  0  0  0
    0.0952   -3.8108   25.4217 H   0  0  0  0  0  0  0  0  0  0  0  0
    1.7537   -5.6593   25.4905 H   0  0  0  0  0  0  0  0  0  0  0  0
    4.9211   -2.7850   26.1196 H   0  0  0  0  0  0  0  0  0  0  0  0
    7.1439   -4.5075   25.1413 H   0  0  0  0  0  0  0  0  0  0  0  0
    6.1081   -3.5789   24.0756 H   0  0  0  0  0  0  0  0  0  0  0  0
    7.9844   -5.8656   23.2537 H   0  0  0  0  0  0  0  0  0  0  0  0
    8.2440   -4.1862   22.9285 H   0  0  0  0  0  0  0  0  0  0  0  0
    5.2098   -6.4824   21.0975 H   0  0  0  0  0  0  0  0  0  0  0  0
    6.3448   -7.1305   22.2485 H   0  0  0  0  0  0  0  0  0  0  0  0
    4.0611   -5.1761   22.8712 H   0  0  0  0  0  0  0  0  0  0  0  0
    4.1587   -6.8574   23.3549 H   0  0  0  0  0  0  0  0  0  0  0  0
  1 11  1  0  0  0  0
  1 14  1  0  0  0  0
  1 19  1  0  0  0  0
  2  4  2  0  0  0  0
  2 10  1  0  0  0  0
  2 15  1  0  0  0  0
  3 19  2  0  0  0  0
  4  7  1  0  0  0  0
  4 20  1  0  0  0  0
  5  6  1  0  0  0  0
  5 16  1  0  0  0  0
  5 18  2  0  0  0  0
  6 21  1  0  0  0  0
  6 22  1  0  0  0  0
  6 23  1  0  0  0  0
  7  8  2  0  0  0  0
  7 24  1  0  0  0  0
  8  9  1  0  0  0  0
  8 25  1  0  0  0  0
  9 10  2  0  0  0  0
  9 19  1  0  0  0  0
 10 26  1  0  0  0  0
 11 12  1  0  0  0  0
 11 27  1  0  0  0  0
 11 28  1  0  0  0  0
 12 16  1  0  0  0  0
 12 29  1  0  0  0  0
 12 30  1  0  0  0  0
 13 14  1  0  0  0  0
 13 16  1  0  0  0  0
 13 31  1  0  0  0  0
 13 32  1  0  0  0  0
 14 33  1  0  0  0  0
 14 34  1  0  0  0  0
 17 19  2  0  0  0  0
M  END
$$$$
