Mpro-x12143_ligand
 OpenBabel04052409413D

 48 51  0  0  0  0  0  0  0  0999 V2000
    9.0185    1.3826   21.1438 O   0  0  0  0  0  0  0  0  0  0  0  0
    8.7910    0.3421   21.7669 C   0  0  0  0  0  0  0  0  0  0  0  0
    8.0613   -0.8003   21.0320 C   0  0  0  0  0  0  0  0  0  0  0  0
    7.2003   -0.2674   19.9904 N   0  0  0  0  0  0  0  0  0  0  0  0
    6.0242    0.4407   20.1306 C   0  0  0  0  0  0  0  0  0  0  0  0
    5.1910    0.8169   21.1952 C   0  0  0  0  0  0  0  0  0  0  0  0
    4.0907    1.6538   20.9265 C   0  0  0  0  0  0  0  0  0  0  0  0
    3.8521    2.1049   19.6107 C   0  0  0  0  0  0  0  0  0  0  0  0
    4.6941    1.7047   18.5530 C   0  0  0  0  0  0  0  0  0  0  0  0
    5.7833    0.8484   18.8025 C   0  0  0  0  0  0  0  0  0  0  0  0
    6.7423    0.3208   17.9642 N   0  0  0  0  0  0  0  0  0  0  0  0
    7.5798   -0.3549   18.6872 N   0  0  0  0  0  0  0  0  0  0  0  0
    9.1401    0.1846   23.0706 N   0  0  0  0  0  0  0  0  0  0  0  0
    9.5434    1.3373   23.8908 C   0  0  0  0  0  0  0  0  0  0  0  0
   10.8056    1.9784   23.4160 C   0  0  0  0  0  0  0  0  0  0  0  0
   10.7557    3.2724   22.8950 N   0  0  0  0  0  0  0  0  0  0  0  0
   11.9299    3.6471   22.3978 C   0  0  0  0  0  0  0  0  0  0  0  0
   13.2021    2.4683   22.6060 S   0  0  0  0  0  0  0  0  0  0  0  0
   12.0522    1.4095   23.3608 C   0  0  0  0  0  0  0  0  0  0  0  0
    9.0237   -1.0606   23.7359 C   0  0  0  0  0  0  0  0  0  0  0  0
    9.8066   -2.1609   23.3353 C   0  0  0  0  0  0  0  0  0  0  0  0
    9.7023   -3.3796   24.0263 C   0  0  0  0  0  0  0  0  0  0  0  0
    8.1462   -1.1879   24.8297 C   0  0  0  0  0  0  0  0  0  0  0  0
    8.0365   -2.4115   25.5103 C   0  0  0  0  0  0  0  0  0  0  0  0
    8.8114   -3.5285   25.1194 C   0  0  0  0  0  0  0  0  0  0  0  0
    8.7108   -4.7501   25.8163 N   0  0  0  0  0  0  0  0  0  0  0  0
    7.5849   -4.9942   26.7093 C   0  0  0  0  0  0  0  0  0  0  0  0
    9.5729   -5.8531   25.4325 C   0  0  0  0  0  0  0  0  0  0  0  0
    7.4334   -1.3819   21.7069 H   0  0  0  0  0  0  0  0  0  0  0  0
    8.8002   -1.4735   20.5983 H   0  0  0  0  0  0  0  0  0  0  0  0
    5.3961    0.4773   22.1987 H   0  0  0  0  0  0  0  0  0  0  0  0
    3.4393    1.9621   21.7306 H   0  0  0  0  0  0  0  0  0  0  0  0
    3.0191    2.7602   19.4045 H   0  0  0  0  0  0  0  0  0  0  0  0
    4.5195    2.0649   17.5525 H   0  0  0  0  0  0  0  0  0  0  0  0
    9.6755    1.0401   24.9322 H   0  0  0  0  0  0  0  0  0  0  0  0
    8.7337    2.0655   23.9024 H   0  0  0  0  0  0  0  0  0  0  0  0
   12.0410    4.6075   21.9180 H   0  0  0  0  0  0  0  0  0  0  0  0
   12.3528    0.4288   23.6902 H   0  0  0  0  0  0  0  0  0  0  0  0
   10.4972   -2.0742   22.5086 H   0  0  0  0  0  0  0  0  0  0  0  0
   10.3342   -4.1893   23.6996 H   0  0  0  0  0  0  0  0  0  0  0  0
    7.5492   -0.3496   25.1542 H   0  0  0  0  0  0  0  0  0  0  0  0
    7.3552   -2.4630   26.3461 H   0  0  0  0  0  0  0  0  0  0  0  0
    7.5748   -6.0224   27.0698 H   0  0  0  0  0  0  0  0  0  0  0  0
    7.6409   -4.3446   27.5811 H   0  0  0  0  0  0  0  0  0  0  0  0
    6.6390   -4.8115   26.1984 H   0  0  0  0  0  0  0  0  0  0  0  0
    9.3289   -6.7377   26.0082 H   0  0  0  0  0  0  0  0  0  0  0  0
    9.4437   -6.1071   24.3801 H   0  0  0  0  0  0  0  0  0  0  0  0
   10.6186   -5.6051   25.6165 H   0  0  0  0  0  0  0  0  0  0  0  0
  1  2  2  0  0  0  0
  2  3  1  0  0  0  0
  2 13  1  0  0  0  0
  3  4  1  0  0  0  0
  3 29  1  0  0  0  0
  3 30  1  0  0  0  0
  4  5  1  0  0  0  0
  4 12  1  0  0  0  0
  5  6  2  0  0  0  0
  5 10  1  0  0  0  0
  6  7  1  0  0  0  0
  6 31  1  0  0  0  0
  7  8  2  0  0  0  0
  7 32  1  0  0  0  0
  8  9  1  0  0  0  0
  8 33  1  0  0  0  0
  9 10  2  0  0  0  0
  9 34  1  0  0  0  0
 10 11  1  0  0  0  0
 11 12  2  0  0  0  0
 13 14  1  0  0  0  0
 13 20  1  0  0  0  0
 14 15  1  0  0  0  0
 14 35  1  0  0  0  0
 14 36  1  0  0  0  0
 15 16  1  0  0  0  0
 15 19  2  0  0  0  0
 16 17  2  0  0  0  0
 17 18  1  0  0  0  0
 17 37  1  0  0  0  0
 18 19  1  0  0  0  0
 19 38  1  0  0  0  0
 20 21  2  0  0  0  0
 20 23  1  0  0  0  0
 21 22  1  0  0  0  0
 21 39  1  0  0  0  0
 22 25  2  0  0  0  0
 22 40  1  0  0  0  0
 23 24  2  0  0  0  0
 23 41  1  0  0  0  0
 24 25  1  0  0  0  0
 24 42  1  0  0  0  0
 25 26  1  0  0  0  0
 26 27  1  0  0  0  0
 26 28  1  0  0  0  0
 27 43  1  0  0  0  0
 27 44  1  0  0  0  0
 27 45  1  0  0  0  0
 28 46  1  0  0  0  0
 28 47  1  0  0  0  0
 28 48  1  0  0  0  0
M  END
$$$$
