Mpro-x12073_ligand
 OpenBabel04052409413D

 42 45  0  0  1  0  0  0  0  0999 V2000
    9.1004    1.3861   21.2847 O   0  0  0  0  0  0  0  0  0  0  0  0
    8.7271    0.3369   21.8160 C   0  0  0  0  0  0  0  0  0  0  0  0
    9.4032   -0.1769   23.1014 C   0  0  1  0  0  0  0  0  0  0  0  0
   10.9060   -0.0866   22.9097 C   0  0  0  0  0  0  0  0  0  0  0  0
   11.5754   -1.0355   22.1038 C   0  0  0  0  0  0  0  0  0  0  0  0
   12.9619   -0.9227   21.8866 C   0  0  0  0  0  0  0  0  0  0  0  0
   13.7923   -2.0546   20.8891 Cl  0  0  0  0  0  0  0  0  0  0  0  0
   13.6754    0.1292   22.4814 C   0  0  0  0  0  0  0  0  0  0  0  0
   13.0124    1.0654   23.2882 C   0  0  0  0  0  0  0  0  0  0  0  0
   11.6352    0.9649   23.5212 C   0  0  0  0  0  0  0  0  0  0  0  0
   11.0750    1.9011   24.3607 O   0  0  0  0  0  0  0  0  0  0  0  0
    9.6593    1.9915   24.3929 C   0  0  0  0  0  0  0  0  0  0  0  0
    8.9937    0.6067   24.3727 C   0  0  1  0  0  0  0  0  0  0  0  0
    7.4799    0.7251   24.5952 C   0  0  0  0  0  0  0  0  0  0  0  0
    7.7473   -0.4256   21.3083 N   0  0  0  0  0  0  0  0  0  0  0  0
    6.9117    0.0099   20.2574 C   0  0  0  0  0  0  0  0  0  0  0  0
    5.6515    0.5986   20.5062 C   0  0  0  0  0  0  0  0  0  0  0  0
    5.1037    0.6905   21.8045 C   0  0  0  0  0  0  0  0  0  0  0  0
    3.8880    1.3645   22.0126 C   0  0  0  0  0  0  0  0  0  0  0  0
    3.2020    1.9397   20.9269 C   0  0  0  0  0  0  0  0  0  0  0  0
    3.7200    1.8209   19.6236 C   0  0  0  0  0  0  0  0  0  0  0  0
    4.9300    1.1337   19.4134 C   0  0  0  0  0  0  0  0  0  0  0  0
    5.4601    0.9743   18.1205 C   0  0  0  0  0  0  0  0  0  0  0  0
    6.6381    0.3651   17.8822 N   0  0  0  0  0  0  0  0  0  0  0  0
    7.3573   -0.0853   18.9254 C   0  0  0  0  0  0  0  0  0  0  0  0
    9.1433   -1.2279   23.2390 H   0  0  0  0  0  0  0  0  0  0  0  0
   11.0235   -1.8439   21.6467 H   0  0  0  0  0  0  0  0  0  0  0  0
   14.7280    0.2501   22.3048 H   0  0  0  0  0  0  0  0  0  0  0  0
   13.5534    1.8938   23.7060 H   0  0  0  0  0  0  0  0  0  0  0  0
    9.3189    2.6164   23.5669 H   0  0  0  0  0  0  0  0  0  0  0  0
    9.3830    2.5202   25.3045 H   0  0  0  0  0  0  0  0  0  0  0  0
    9.3892    0.0520   25.2254 H   0  0  0  0  0  0  0  0  0  0  0  0
    7.2699    1.1111   25.5918 H   0  0  0  0  0  0  0  0  0  0  0  0
    7.0263    1.4156   23.8851 H   0  0  0  0  0  0  0  0  0  0  0  0
    6.9892   -0.2441   24.5086 H   0  0  0  0  0  0  0  0  0  0  0  0
    7.4753   -1.2652   21.8052 H   0  0  0  0  0  0  0  0  0  0  0  0
    5.6073    0.2485   22.6470 H   0  0  0  0  0  0  0  0  0  0  0  0
    3.4803    1.4376   23.0095 H   0  0  0  0  0  0  0  0  0  0  0  0
    2.2745    2.4655   21.0929 H   0  0  0  0  0  0  0  0  0  0  0  0
    3.1917    2.2625   18.7908 H   0  0  0  0  0  0  0  0  0  0  0  0
    4.9415    1.3579   17.2556 H   0  0  0  0  0  0  0  0  0  0  0  0
    8.3207   -0.5126   18.6912 H   0  0  0  0  0  0  0  0  0  0  0  0
  1  2  2  0  0  0  0
  2  3  1  0  0  0  0
  2 15  1  0  0  0  0
  3  4  1  0  0  0  0
  3 13  1  0  0  0  0
  3 26  1  1  0  0  0
  4  5  2  0  0  0  0
  4 10  1  0  0  0  0
  5  6  1  0  0  0  0
  5 27  1  0  0  0  0
  6  7  1  0  0  0  0
  6  8  2  0  0  0  0
  8  9  1  0  0  0  0
  8 28  1  0  0  0  0
  9 10  2  0  0  0  0
  9 29  1  0  0  0  0
 10 11  1  0  0  0  0
 11 12  1  0  0  0  0
 12 13  1  0  0  0  0
 12 30  1  0  0  0  0
 12 31  1  0  0  0  0
 13 14  1  0  0  0  0
 13 32  1  1  0  0  0
 14 33  1  0  0  0  0
 14 34  1  0  0  0  0
 14 35  1  0  0  0  0
 15 16  1  0  0  0  0
 15 36  1  0  0  0  0
 16 17  2  0  0  0  0
 16 25  1  0  0  0  0
 17 18  1  0  0  0  0
 17 22  1  0  0  0  0
 18 19  2  0  0  0  0
 18 37  1  0  0  0  0
 19 20  1  0  0  0  0
 19 38  1  0  0  0  0
 20 21  2  0  0  0  0
 20 39  1  0  0  0  0
 21 22  1  0  0  0  0
 21 40  1  0  0  0  0
 22 23  2  0  0  0  0
 23 24  1  0  0  0  0
 23 41  1  0  0  0  0
 24 25  2  0  0  0  0
 25 42  1  0  0  0  0
M  END
$$$$
