Mpro-x11368_ligand
 OpenBabel04052409413D

 31 32  0  0  0  0  0  0  0  0999 V2000
   13.7282   -2.0116   21.1562 Br  0  0  0  0  0  0  0  0  0  0  0  0
   12.4834   -1.0560   22.2193 C   0  0  0  0  0  0  0  0  0  0  0  0
   12.9058   -0.0185   23.0724 C   0  0  0  0  0  0  0  0  0  0  0  0
   11.9607    0.6800   23.8479 C   0  0  0  0  0  0  0  0  0  0  0  0
   10.5928    0.3591   23.7458 C   0  0  0  0  0  0  0  0  0  0  0  0
   11.1236   -1.3887   22.1366 C   0  0  0  0  0  0  0  0  0  0  0  0
   10.1726   -0.6617   22.8711 C   0  0  0  0  0  0  0  0  0  0  0  0
    8.7009   -0.9329   22.6455 C   0  0  0  0  0  0  0  0  0  0  0  0
    8.1743   -0.0960   21.4729 C   0  0  0  0  0  0  0  0  0  0  0  0
    8.7743    0.9083   21.0810 O   0  0  0  0  0  0  0  0  0  0  0  0
    7.0284   -0.5161   20.9254 N   0  0  0  0  0  0  0  0  0  0  0  0
    6.3679    0.1497   19.8750 C   0  0  0  0  0  0  0  0  0  0  0  0
    5.2059    0.9142   20.1141 C   0  0  0  0  0  0  0  0  0  0  0  0
    4.6271    1.0523   21.5070 C   0  0  0  0  0  0  0  0  0  0  0  0
    6.8519    0.0480   18.5574 C   0  0  0  0  0  0  0  0  0  0  0  0
    6.2618    0.6585   17.5106 N   0  0  0  0  0  0  0  0  0  0  0  0
    5.1693    1.4108   17.7470 C   0  0  0  0  0  0  0  0  0  0  0  0
    4.6047    1.5725   19.0243 C   0  0  0  0  0  0  0  0  0  0  0  0
   13.9505    0.2415   23.1278 H   0  0  0  0  0  0  0  0  0  0  0  0
   12.2845    1.4789   24.4951 H   0  0  0  0  0  0  0  0  0  0  0  0
    9.8563    0.9143   24.3045 H   0  0  0  0  0  0  0  0  0  0  0  0
   10.8022   -2.1812   21.4809 H   0  0  0  0  0  0  0  0  0  0  0  0
    8.1310   -0.7081   23.5462 H   0  0  0  0  0  0  0  0  0  0  0  0
    8.5614   -1.9942   22.4355 H   0  0  0  0  0  0  0  0  0  0  0  0
    6.5609   -1.3140   21.3407 H   0  0  0  0  0  0  0  0  0  0  0  0
    3.7165    1.6502   21.4938 H   0  0  0  0  0  0  0  0  0  0  0  0
    4.3882    0.0721   21.9196 H   0  0  0  0  0  0  0  0  0  0  0  0
    5.3448    1.5377   22.1690 H   0  0  0  0  0  0  0  0  0  0  0  0
    7.7382   -0.5299   18.3374 H   0  0  0  0  0  0  0  0  0  0  0  0
    4.7531    1.9234   16.8952 H   0  0  0  0  0  0  0  0  0  0  0  0
    3.7331    2.1948   19.1576 H   0  0  0  0  0  0  0  0  0  0  0  0
  1  2  1  0  0  0  0
  2  3  2  0  0  0  0
  2  6  1  0  0  0  0
  3  4  1  0  0  0  0
  3 19  1  0  0  0  0
  4  5  2  0  0  0  0
  4 20  1  0  0  0  0
  5  7  1  0  0  0  0
  5 21  1  0  0  0  0
  6  7  2  0  0  0  0
  6 22  1  0  0  0  0
  7  8  1  0  0  0  0
  8  9  1  0  0  0  0
  8 23  1  0  0  0  0
  8 24  1  0  0  0  0
  9 10  2  0  0  0  0
  9 11  1  0  0  0  0
 11 12  1  0  0  0  0
 11 25  1  0  0  0  0
 12 13  2  0  0  0  0
 12 15  1  0  0  0  0
 13 14  1  0  0  0  0
 13 18  1  0  0  0  0
 14 26  1  0  0  0  0
 14 27  1  0  0  0  0
 14 28  1  0  0  0  0
 15 16  2  0  0  0  0
 15 29  1  0  0  0  0
 16 17  1  0  0  0  0
 17 18  2  0  0  0  0
 17 30  1  0  0  0  0
 18 31  1  0  0  0  0
M  END
$$$$
