Mpro-x12207_ligand
 OpenBabel04052409413D

 42 45  0  0  1  0  0  0  0  0999 V2000
    9.1802    1.0575   21.1600 O   0  0  0  0  0  0  0  0  0  0  0  0
    8.7206    0.0008   21.6029 C   0  0  0  0  0  0  0  0  0  0  0  0
    9.3010   -0.6306   22.8960 C   0  0  1  0  0  0  0  0  0  0  0  0
   10.8154   -0.3941   22.8574 C   0  0  0  0  0  0  0  0  0  0  0  0
   11.6308   -1.1363   21.9771 C   0  0  0  0  0  0  0  0  0  0  0  0
   13.0010   -0.8588   21.8631 C   0  0  0  0  0  0  0  0  0  0  0  0
   13.9664   -1.8033   20.7979 Cl  0  0  0  0  0  0  0  0  0  0  0  0
   13.5675    0.1837   22.6151 C   0  0  0  0  0  0  0  0  0  0  0  0
   12.7670    0.9192   23.5061 C   0  0  0  0  0  0  0  0  0  0  0  0
   11.4064    0.6083   23.6671 C   0  0  0  0  0  0  0  0  0  0  0  0
   10.6864    1.2857   24.6182 O   0  0  0  0  0  0  0  0  0  0  0  0
    9.6364    0.5207   25.1877 C   0  0  0  0  0  0  0  0  0  0  0  0
    8.6427    0.1029   24.1016 C   0  0  0  0  0  0  0  0  0  0  0  0
    9.0140   -2.1530   22.9849 C   0  0  0  0  0  0  0  0  0  0  0  0
    7.6909   -0.6280   21.0190 N   0  0  0  0  0  0  0  0  0  0  0  0
    6.8851   -0.0402   20.0194 C   0  0  0  0  0  0  0  0  0  0  0  0
    5.6951    0.6563   20.3400 C   0  0  0  0  0  0  0  0  0  0  0  0
    5.2206    0.7738   21.6650 C   0  0  0  0  0  0  0  0  0  0  0  0
    4.0394    1.4919   21.9279 C   0  0  0  0  0  0  0  0  0  0  0  0
    3.3346    2.1103   20.8776 C   0  0  0  0  0  0  0  0  0  0  0  0
    3.8019    2.0021   19.5556 C   0  0  0  0  0  0  0  0  0  0  0  0
    4.9681    1.2612   19.2871 C   0  0  0  0  0  0  0  0  0  0  0  0
    5.4403    1.1091   17.9718 C   0  0  0  0  0  0  0  0  0  0  0  0
    6.5557    0.4211   17.6657 N   0  0  0  0  0  0  0  0  0  0  0  0
    7.2670   -0.1304   18.6683 C   0  0  0  0  0  0  0  0  0  0  0  0
   11.2106   -1.9268   21.3776 H   0  0  0  0  0  0  0  0  0  0  0  0
   14.6116    0.4255   22.5078 H   0  0  0  0  0  0  0  0  0  0  0  0
   13.2001    1.7179   24.0812 H   0  0  0  0  0  0  0  0  0  0  0  0
    9.1322    1.1198   25.9458 H   0  0  0  0  0  0  0  0  0  0  0  0
   10.0511   -0.3509   25.6956 H   0  0  0  0  0  0  0  0  0  0  0  0
    7.8430   -0.4951   24.5394 H   0  0  0  0  0  0  0  0  0  0  0  0
    8.1519    1.0183   23.7747 H   0  0  0  0  0  0  0  0  0  0  0  0
    9.5927   -2.6130   23.7865 H   0  0  0  0  0  0  0  0  0  0  0  0
    7.9625   -2.3571   23.1851 H   0  0  0  0  0  0  0  0  0  0  0  0
    9.2650   -2.6825   22.0656 H   0  0  0  0  0  0  0  0  0  0  0  0
    7.3485   -1.4706   21.4595 H   0  0  0  0  0  0  0  0  0  0  0  0
    5.7521    0.3232   22.4894 H   0  0  0  0  0  0  0  0  0  0  0  0
    3.6764    1.5716   22.9407 H   0  0  0  0  0  0  0  0  0  0  0  0
    2.4326    2.6663   21.0865 H   0  0  0  0  0  0  0  0  0  0  0  0
    3.2620    2.4835   18.7521 H   0  0  0  0  0  0  0  0  0  0  0  0
    4.9295    1.5681   17.1407 H   0  0  0  0  0  0  0  0  0  0  0  0
    8.1710   -0.6492   18.3825 H   0  0  0  0  0  0  0  0  0  0  0  0
  1  2  2  0  0  0  0
  2 15  1  0  0  0  0
  3  2  1  6  0  0  0
  3  4  1  0  0  0  0
  3 13  1  0  0  0  0
  3 14  1  0  0  0  0
  4  5  2  0  0  0  0
  4 10  1  0  0  0  0
  5  6  1  0  0  0  0
  5 26  1  0  0  0  0
  6  7  1  0  0  0  0
  6  8  2  0  0  0  0
  8  9  1  0  0  0  0
  8 27  1  0  0  0  0
  9 10  2  0  0  0  0
  9 28  1  0  0  0  0
 10 11  1  0  0  0  0
 11 12  1  0  0  0  0
 12 13  1  0  0  0  0
 12 29  1  0  0  0  0
 12 30  1  0  0  0  0
 13 31  1  0  0  0  0
 13 32  1  0  0  0  0
 14 33  1  0  0  0  0
 14 34  1  0  0  0  0
 14 35  1  0  0  0  0
 15 16  1  0  0  0  0
 15 36  1  0  0  0  0
 16 17  2  0  0  0  0
 16 25  1  0  0  0  0
 17 18  1  0  0  0  0
 17 22  1  0  0  0  0
 18 19  2  0  0  0  0
 18 37  1  0  0  0  0
 19 20  1  0  0  0  0
 19 38  1  0  0  0  0
 20 21  2  0  0  0  0
 20 39  1  0  0  0  0
 21 22  1  0  0  0  0
 21 40  1  0  0  0  0
 22 23  2  0  0  0  0
 23 24  1  0  0  0  0
 23 41  1  0  0  0  0
 24 25  2  0  0  0  0
 25 42  1  0  0  0  0
M  END
$$$$
