Mpro-x11789_ligand
 OpenBabel04052409413D

 31 33  0  0  0  0  0  0  0  0999 V2000
    8.6244    0.7856   21.1984 O   0  0  0  0  0  0  0  0  0  0  0  0
    8.1876   -0.3246   21.5121 C   0  0  0  0  0  0  0  0  0  0  0  0
    8.7050   -1.0436   22.7661 C   0  0  0  0  0  0  0  0  0  0  0  0
   10.1556   -0.6902   23.0303 C   0  0  0  0  0  0  0  0  0  0  0  0
   10.4898    0.3401   23.9339 C   0  0  0  0  0  0  0  0  0  0  0  0
   11.8328    0.7314   24.0899 C   0  0  0  0  0  0  0  0  0  0  0  0
   12.8443    0.0998   23.3403 C   0  0  0  0  0  0  0  0  0  0  0  0
   11.1748   -1.3609   22.3279 C   0  0  0  0  0  0  0  0  0  0  0  0
   12.5137   -0.9594   22.4736 C   0  0  0  0  0  0  0  0  0  0  0  0
   13.7329   -1.7512   21.5544 Cl  0  0  0  0  0  0  0  0  0  0  0  0
    7.2387   -0.9736   20.8179 N   0  0  0  0  0  0  0  0  0  0  0  0
    6.6472   -0.3509   19.7383 N   0  0  0  0  0  0  0  0  0  0  0  0
    5.4721    0.3527   19.8559 C   0  0  0  0  0  0  0  0  0  0  0  0
    5.3391    0.8339   18.5347 C   0  0  0  0  0  0  0  0  0  0  0  0
    6.3762    0.3687   17.7441 N   0  0  0  0  0  0  0  0  0  0  0  0
    7.1642   -0.3488   18.4860 N   0  0  0  0  0  0  0  0  0  0  0  0
    4.5557    0.6640   20.8729 C   0  0  0  0  0  0  0  0  0  0  0  0
    3.4746    1.5098   20.5613 C   0  0  0  0  0  0  0  0  0  0  0  0
    3.3324    2.0231   19.2530 C   0  0  0  0  0  0  0  0  0  0  0  0
    4.2539    1.6837   18.2424 C   0  0  0  0  0  0  0  0  0  0  0  0
    8.6221   -2.1246   22.6445 H   0  0  0  0  0  0  0  0  0  0  0  0
    8.0880   -0.7677   23.6219 H   0  0  0  0  0  0  0  0  0  0  0  0
    9.7163    0.8558   24.4835 H   0  0  0  0  0  0  0  0  0  0  0  0
   12.0839    1.5334   24.7654 H   0  0  0  0  0  0  0  0  0  0  0  0
   13.8715    0.4164   23.4396 H   0  0  0  0  0  0  0  0  0  0  0  0
   10.9251   -2.1576   21.6434 H   0  0  0  0  0  0  0  0  0  0  0  0
    6.7531   -1.8001   21.1476 H   0  0  0  0  0  0  0  0  0  0  0  0
    4.6857    0.2764   21.8724 H   0  0  0  0  0  0  0  0  0  0  0  0
    2.7576    1.7747   21.3242 H   0  0  0  0  0  0  0  0  0  0  0  0
    2.5091    2.6794   19.0189 H   0  0  0  0  0  0  0  0  0  0  0  0
    4.1396    2.0846   17.2465 H   0  0  0  0  0  0  0  0  0  0  0  0
  1  2  2  0  0  0  0
  2  3  1  0  0  0  0
  2 11  1  0  0  0  0
  3  4  1  0  0  0  0
  3 21  1  0  0  0  0
  3 22  1  0  0  0  0
  4  5  2  0  0  0  0
  4  8  1  0  0  0  0
  5  6  1  0  0  0  0
  5 23  1  0  0  0  0
  6  7  2  0  0  0  0
  6 24  1  0  0  0  0
  7  9  1  0  0  0  0
  7 25  1  0  0  0  0
  8  9  2  0  0  0  0
  8 26  1  0  0  0  0
  9 10  1  0  0  0  0
 11 12  1  0  0  0  0
 11 27  1  0  0  0  0
 12 13  1  0  0  0  0
 12 16  1  0  0  0  0
 13 14  2  0  0  0  0
 13 17  1  0  0  0  0
 14 15  1  0  0  0  0
 14 20  1  0  0  0  0
 15 16  2  0  0  0  0
 17 18  2  0  0  0  0
 17 28  1  0  0  0  0
 18 19  1  0  0  0  0
 18 29  1  0  0  0  0
 19 20  2  0  0  0  0
 19 30  1  0  0  0  0
 20 31  1  0  0  0  0
M  END
$$$$
