Mpro-x2572_ligand
 OpenBabel04052409413D

 32 33  0  0  0  0  0  0  0  0999 V2000
   14.2212   -2.1288   20.4807 N   0  0  0  0  0  0  0  0  0  0  0  0
   13.5380   -1.5799   21.2298 C   0  0  0  0  0  0  0  0  0  0  0  0
   12.6703   -0.8926   22.1589 C   0  0  0  0  0  0  0  0  0  0  0  0
   13.1739    0.0995   23.0228 C   0  0  0  0  0  0  0  0  0  0  0  0
   12.3031    0.7696   23.9026 C   0  0  0  0  0  0  0  0  0  0  0  0
   10.9300    0.4616   23.9015 C   0  0  0  0  0  0  0  0  0  0  0  0
   11.3015   -1.2097   22.1695 C   0  0  0  0  0  0  0  0  0  0  0  0
   10.4251   -0.5123   23.0198 C   0  0  0  0  0  0  0  0  0  0  0  0
    8.9312   -0.7400   22.9080 C   0  0  0  0  0  0  0  0  0  0  0  0
    8.3754    0.0025   21.6884 C   0  0  0  0  0  0  0  0  0  0  0  0
    9.0401    0.8668   21.1102 O   0  0  0  0  0  0  0  0  0  0  0  0
    7.1328   -0.3333   21.3163 N   0  0  0  0  0  0  0  0  0  0  0  0
    6.4722    0.2268   20.2032 C   0  0  0  0  0  0  0  0  0  0  0  0
    5.2369    0.8946   20.3528 C   0  0  0  0  0  0  0  0  0  0  0  0
    4.5868    1.0566   21.7116 C   0  0  0  0  0  0  0  0  0  0  0  0
    7.0377    0.1340   18.9155 C   0  0  0  0  0  0  0  0  0  0  0  0
    6.4584    0.6686   17.8276 N   0  0  0  0  0  0  0  0  0  0  0  0
    5.2865    1.3155   17.9711 C   0  0  0  0  0  0  0  0  0  0  0  0
    4.6363    1.4571   19.2093 C   0  0  0  0  0  0  0  0  0  0  0  0
   14.2208    0.3578   23.0077 H   0  0  0  0  0  0  0  0  0  0  0  0
   12.6814    1.5405   24.5536 H   0  0  0  0  0  0  0  0  0  0  0  0
   10.2491    0.9973   24.5417 H   0  0  0  0  0  0  0  0  0  0  0  0
   10.9090   -1.9565   21.4953 H   0  0  0  0  0  0  0  0  0  0  0  0
    8.4237   -0.3903   23.8077 H   0  0  0  0  0  0  0  0  0  0  0  0
    8.7307   -1.8085   22.8169 H   0  0  0  0  0  0  0  0  0  0  0  0
    6.5933   -0.9320   21.9248 H   0  0  0  0  0  0  0  0  0  0  0  0
    3.5669    1.4299   21.6171 H   0  0  0  0  0  0  0  0  0  0  0  0
    4.5517    0.1035   22.2396 H   0  0  0  0  0  0  0  0  0  0  0  0
    5.1539    1.7667   22.3150 H   0  0  0  0  0  0  0  0  0  0  0  0
    7.9808   -0.3682   18.7541 H   0  0  0  0  0  0  0  0  0  0  0  0
    4.8734    1.7511   17.0762 H   0  0  0  0  0  0  0  0  0  0  0  0
    3.7074    2.0030   19.2768 H   0  0  0  0  0  0  0  0  0  0  0  0
  1  2  3  0  0  0  0
  2  3  1  0  0  0  0
  3  4  2  0  0  0  0
  3  7  1  0  0  0  0
  4  5  1  0  0  0  0
  4 20  1  0  0  0  0
  5  6  2  0  0  0  0
  5 21  1  0  0  0  0
  6  8  1  0  0  0  0
  6 22  1  0  0  0  0
  7  8  2  0  0  0  0
  7 23  1  0  0  0  0
  8  9  1  0  0  0  0
  9 10  1  0  0  0  0
  9 24  1  0  0  0  0
  9 25  1  0  0  0  0
 10 11  2  0  0  0  0
 10 12  1  0  0  0  0
 12 13  1  0  0  0  0
 12 26  1  0  0  0  0
 13 14  2  0  0  0  0
 13 16  1  0  0  0  0
 14 15  1  0  0  0  0
 14 19  1  0  0  0  0
 15 27  1  0  0  0  0
 15 28  1  0  0  0  0
 15 29  1  0  0  0  0
 16 17  2  0  0  0  0
 16 30  1  0  0  0  0
 17 18  1  0  0  0  0
 18 19  2  0  0  0  0
 18 31  1  0  0  0  0
 19 32  1  0  0  0  0
M  END
$$$$
