Mpro-x10417_ligand
 OpenBabel04052409413D

 31 32  0  0  0  0  0  0  0  0999 V2000
   10.9712    0.1192   23.8810 C   0  0  0  0  0  0  0  0  0  0  0  0
   13.8112   -1.6363   21.3791 F   0  0  0  0  0  0  0  0  0  0  0  0
    6.4889    0.6870   17.6771 N   0  0  0  0  0  0  0  0  0  0  0  0
   12.8905   -1.0706   22.1937 C   0  0  0  0  0  0  0  0  0  0  0  0
    5.4413    0.8442   20.2937 C   0  0  0  0  0  0  0  0  0  0  0  0
   13.2826   -0.1295   23.1625 C   0  0  0  0  0  0  0  0  0  0  0  0
    4.8750    0.9539   21.6959 C   0  0  0  0  0  0  0  0  0  0  0  0
   10.5674   -0.7925   22.8850 C   0  0  0  0  0  0  0  0  0  0  0  0
    4.7814    1.4593   19.2120 C   0  0  0  0  0  0  0  0  0  0  0  0
    8.5359   -0.1578   21.5448 C   0  0  0  0  0  0  0  0  0  0  0  0
    7.3381   -0.5101   21.0677 N   0  0  0  0  0  0  0  0  0  0  0  0
    9.1500    0.8396   21.1538 O   0  0  0  0  0  0  0  0  0  0  0  0
    6.6471    0.1577   20.0363 C   0  0  0  0  0  0  0  0  0  0  0  0
    9.0961   -1.0646   22.6491 C   0  0  0  0  0  0  0  0  0  0  0  0
    7.1269    0.1054   18.7127 C   0  0  0  0  0  0  0  0  0  0  0  0
   12.3302    0.4436   24.0249 C   0  0  0  0  0  0  0  0  0  0  0  0
   11.5343   -1.4160   22.0721 C   0  0  0  0  0  0  0  0  0  0  0  0
    5.3450    1.3509   17.9288 C   0  0  0  0  0  0  0  0  0  0  0  0
   10.2405    0.5879   24.5212 H   0  0  0  0  0  0  0  0  0  0  0  0
   14.3145    0.1525   23.2431 H   0  0  0  0  0  0  0  0  0  0  0  0
    4.7768   -0.0327   22.1493 H   0  0  0  0  0  0  0  0  0  0  0  0
    5.5355    1.5586   22.3187 H   0  0  0  0  0  0  0  0  0  0  0  0
    3.8912    1.4231   21.6874 H   0  0  0  0  0  0  0  0  0  0  0  0
    3.8693    2.0145   19.3588 H   0  0  0  0  0  0  0  0  0  0  0  0
    6.8660   -1.2967   21.4988 H   0  0  0  0  0  0  0  0  0  0  0  0
    8.5317   -0.9049   23.5688 H   0  0  0  0  0  0  0  0  0  0  0  0
    8.9637   -2.1110   22.3702 H   0  0  0  0  0  0  0  0  0  0  0  0
    8.0437   -0.4155   18.4760 H   0  0  0  0  0  0  0  0  0  0  0  0
   12.6354    1.1534   24.7768 H   0  0  0  0  0  0  0  0  0  0  0  0
   11.2293   -2.1453   21.3420 H   0  0  0  0  0  0  0  0  0  0  0  0
    4.8845    1.8355   17.0837 H   0  0  0  0  0  0  0  0  0  0  0  0
  1  8  2  0  0  0  0
  1 16  1  0  0  0  0
  1 19  1  0  0  0  0
  2  4  1  0  0  0  0
  3 15  2  0  0  0  0
  3 18  1  0  0  0  0
  4  6  1  0  0  0  0
  4 17  2  0  0  0  0
  5  7  1  0  0  0  0
  5  9  1  0  0  0  0
  5 13  2  0  0  0  0
  6 16  2  0  0  0  0
  6 20  1  0  0  0  0
  7 21  1  0  0  0  0
  7 22  1  0  0  0  0
  7 23  1  0  0  0  0
  8 14  1  0  0  0  0
  8 17  1  0  0  0  0
  9 18  2  0  0  0  0
  9 24  1  0  0  0  0
 10 11  1  0  0  0  0
 10 12  2  0  0  0  0
 10 14  1  0  0  0  0
 11 13  1  0  0  0  0
 11 25  1  0  0  0  0
 13 15  1  0  0  0  0
 14 26  1  0  0  0  0
 14 27  1  0  0  0  0
 15 28  1  0  0  0  0
 16 29  1  0  0  0  0
 17 30  1  0  0  0  0
 18 31  1  0  0  0  0
M  END
$$$$
