Mpro-x11564_ligand
 OpenBabel04052409413D

 44 46  0  0  0  0  0  0  0  0999 V2000
    8.5239    1.1160   20.9149 O   0  0  0  0  0  0  0  0  0  0  0  0
    8.0612    0.0519   21.3315 C   0  0  0  0  0  0  0  0  0  0  0  0
    6.9500   -0.4911   20.8213 N   0  0  0  0  0  0  0  0  0  0  0  0
    6.2131    0.1255   19.7926 C   0  0  0  0  0  0  0  0  0  0  0  0
    5.0640    0.8974   20.0720 C   0  0  0  0  0  0  0  0  0  0  0  0
    4.5269    1.0398   21.4824 C   0  0  0  0  0  0  0  0  0  0  0  0
    4.4424    1.5712   19.0030 C   0  0  0  0  0  0  0  0  0  0  0  0
    4.9812    1.4224   17.7116 C   0  0  0  0  0  0  0  0  0  0  0  0
    6.0546    0.6563   17.4360 N   0  0  0  0  0  0  0  0  0  0  0  0
    6.6559    0.0224   18.4606 C   0  0  0  0  0  0  0  0  0  0  0  0
    8.7220   -0.7111   22.4851 C   0  0  0  0  0  0  0  0  0  0  0  0
   10.1401   -0.2346   22.7478 C   0  0  0  0  0  0  0  0  0  0  0  0
   11.2152   -1.1061   22.5205 C   0  0  0  0  0  0  0  0  0  0  0  0
   12.5275   -0.6477   22.6978 C   0  0  0  0  0  0  0  0  0  0  0  0
   13.8178   -1.7163   22.3223 Cl  0  0  0  0  0  0  0  0  0  0  0  0
   12.7742    0.6721   23.1315 C   0  0  0  0  0  0  0  0  0  0  0  0
   10.3912    1.0863   23.1775 C   0  0  0  0  0  0  0  0  0  0  0  0
   11.7054    1.5724   23.3607 C   0  0  0  0  0  0  0  0  0  0  0  0
   11.9453    2.9887   23.7315 C   0  0  0  0  0  0  0  0  0  0  0  0
   13.0713    3.6773   23.2187 C   0  0  0  0  0  0  0  0  0  0  0  0
   13.3440    5.0102   23.5801 C   0  0  0  0  0  0  0  0  0  0  0  0
   11.0705    3.7045   24.5885 C   0  0  0  0  0  0  0  0  0  0  0  0
    9.9808    3.1078   25.1296 F   0  0  0  0  0  0  0  0  0  0  0  0
   11.3277    5.0456   24.9335 C   0  0  0  0  0  0  0  0  0  0  0  0
   10.4727    5.6966   25.7586 F   0  0  0  0  0  0  0  0  0  0  0  0
   12.4845    5.6926   24.4601 C   0  0  0  0  0  0  0  0  0  0  0  0
   12.8157    7.0962   24.9239 C   0  0  0  0  0  0  0  0  0  0  0  0
    6.5796   -1.3378   21.2378 H   0  0  0  0  0  0  0  0  0  0  0  0
    3.5382    1.4985   21.4804 H   0  0  0  0  0  0  0  0  0  0  0  0
    4.4464    0.0652   21.9639 H   0  0  0  0  0  0  0  0  0  0  0  0
    5.1908    1.6636   22.0797 H   0  0  0  0  0  0  0  0  0  0  0  0
    3.5802    2.2021   19.1617 H   0  0  0  0  0  0  0  0  0  0  0  0
    4.5562    1.9506   16.8754 H   0  0  0  0  0  0  0  0  0  0  0  0
    7.5359   -0.5530   18.2145 H   0  0  0  0  0  0  0  0  0  0  0  0
    8.7291   -1.7763   22.2496 H   0  0  0  0  0  0  0  0  0  0  0  0
    8.1269   -0.5929   23.3896 H   0  0  0  0  0  0  0  0  0  0  0  0
   11.0411   -2.1140   22.1712 H   0  0  0  0  0  0  0  0  0  0  0  0
   13.7965    0.9970   23.2542 H   0  0  0  0  0  0  0  0  0  0  0  0
    9.5494    1.7479   23.3083 H   0  0  0  0  0  0  0  0  0  0  0  0
   13.7547    3.1813   22.5484 H   0  0  0  0  0  0  0  0  0  0  0  0
   14.2241    5.4969   23.1863 H   0  0  0  0  0  0  0  0  0  0  0  0
   11.9153    7.6493   25.1833 H   0  0  0  0  0  0  0  0  0  0  0  0
   13.4394    7.0539   25.8162 H   0  0  0  0  0  0  0  0  0  0  0  0
   13.3492    7.6504   24.1511 H   0  0  0  0  0  0  0  0  0  0  0  0
  1  2  2  0  0  0  0
  2  3  1  0  0  0  0
  2 11  1  0  0  0  0
  3  4  1  0  0  0  0
  3 28  1  0  0  0  0
  4  5  2  0  0  0  0
  4 10  1  0  0  0  0
  5  6  1  0  0  0  0
  5  7  1  0  0  0  0
  6 29  1  0  0  0  0
  6 30  1  0  0  0  0
  6 31  1  0  0  0  0
  7  8  2  0  0  0  0
  7 32  1  0  0  0  0
  8  9  1  0  0  0  0
  8 33  1  0  0  0  0
  9 10  2  0  0  0  0
 10 34  1  0  0  0  0
 11 12  1  0  0  0  0
 11 35  1  0  0  0  0
 11 36  1  0  0  0  0
 12 13  2  0  0  0  0
 12 17  1  0  0  0  0
 13 14  1  0  0  0  0
 13 37  1  0  0  0  0
 14 15  1  0  0  0  0
 14 16  2  0  0  0  0
 16 18  1  0  0  0  0
 16 38  1  0  0  0  0
 17 18  2  0  0  0  0
 17 39  1  0  0  0  0
 18 19  1  0  0  0  0
 19 20  2  0  0  0  0
 19 22  1  0  0  0  0
 20 21  1  0  0  0  0
 20 40  1  0  0  0  0
 21 26  2  0  0  0  0
 21 41  1  0  0  0  0
 22 23  1  0  0  0  0
 22 24  2  0  0  0  0
 24 25  1  0  0  0  0
 24 26  1  0  0  0  0
 26 27  1  0  0  0  0
 27 42  1  0  0  0  0
 27 43  1  0  0  0  0
 27 44  1  0  0  0  0
M  END
$$$$
