Mpro-x11548_ligand
 OpenBabel04052409413D

 33 35  0  0  0  0  0  0  0  0999 V2000
    8.8096    0.7500   20.9664 O   0  0  0  0  0  0  0  0  0  0  0  0
    8.2289   -0.2684   21.3496 C   0  0  0  0  0  0  0  0  0  0  0  0
    8.7615   -1.0933   22.5278 C   0  0  0  0  0  0  0  0  0  0  0  0
   10.2242   -0.7855   22.7708 C   0  0  0  0  0  0  0  0  0  0  0  0
   10.6075    0.2577   23.6373 C   0  0  0  0  0  0  0  0  0  0  0  0
   11.9666    0.6013   23.7628 C   0  0  0  0  0  0  0  0  0  0  0  0
   12.9401   -0.0894   23.0153 C   0  0  0  0  0  0  0  0  0  0  0  0
   11.2030   -1.5007   22.0612 C   0  0  0  0  0  0  0  0  0  0  0  0
   12.5539   -1.1367   22.1584 C   0  0  0  0  0  0  0  0  0  0  0  0
   13.7150   -1.9588   21.1935 Cl  0  0  0  0  0  0  0  0  0  0  0  0
    7.1009   -0.7131   20.7842 N   0  0  0  0  0  0  0  0  0  0  0  0
    6.3973   -0.0091   19.7856 C   0  0  0  0  0  0  0  0  0  0  0  0
    5.2309    0.7279   20.0877 C   0  0  0  0  0  0  0  0  0  0  0  0
    4.6998    0.7924   21.3953 C   0  0  0  0  0  0  0  0  0  0  0  0
    3.5504    1.5678   21.6201 C   0  0  0  0  0  0  0  0  0  0  0  0
    2.9794    2.2518   20.5320 C   0  0  0  0  0  0  0  0  0  0  0  0
    3.4713    2.1905   19.2779 N   0  0  0  0  0  0  0  0  0  0  0  0
    4.5754    1.4452   19.0497 C   0  0  0  0  0  0  0  0  0  0  0  0
    5.1302    1.3444   17.7575 C   0  0  0  0  0  0  0  0  0  0  0  0
    6.2285    0.6224   17.4567 N   0  0  0  0  0  0  0  0  0  0  0  0
    6.8528   -0.0319   18.4545 C   0  0  0  0  0  0  0  0  0  0  0  0
    8.6428   -2.1581   22.3208 H   0  0  0  0  0  0  0  0  0  0  0  0
    8.1796   -0.8742   23.4224 H   0  0  0  0  0  0  0  0  0  0  0  0
    9.8577    0.8147   24.1779 H   0  0  0  0  0  0  0  0  0  0  0  0
   12.2578    1.4099   24.4117 H   0  0  0  0  0  0  0  0  0  0  0  0
   13.9775    0.1927   23.0880 H   0  0  0  0  0  0  0  0  0  0  0  0
   10.9080   -2.3067   21.4094 H   0  0  0  0  0  0  0  0  0  0  0  0
    6.6435   -1.5178   21.1979 H   0  0  0  0  0  0  0  0  0  0  0  0
    5.1574    0.2644   22.2187 H   0  0  0  0  0  0  0  0  0  0  0  0
    3.1168    1.6388   22.6054 H   0  0  0  0  0  0  0  0  0  0  0  0
    2.0984    2.8575   20.6745 H   0  0  0  0  0  0  0  0  0  0  0  0
    4.6902    1.8859   16.9352 H   0  0  0  0  0  0  0  0  0  0  0  0
    7.7432   -0.5809   18.1854 H   0  0  0  0  0  0  0  0  0  0  0  0
  1  2  2  0  0  0  0
  2  3  1  0  0  0  0
  2 11  1  0  0  0  0
  3  4  1  0  0  0  0
  3 22  1  0  0  0  0
  3 23  1  0  0  0  0
  4  5  2  0  0  0  0
  4  8  1  0  0  0  0
  5  6  1  0  0  0  0
  5 24  1  0  0  0  0
  6  7  2  0  0  0  0
  6 25  1  0  0  0  0
  7  9  1  0  0  0  0
  7 26  1  0  0  0  0
  8  9  2  0  0  0  0
  8 27  1  0  0  0  0
  9 10  1  0  0  0  0
 11 12  1  0  0  0  0
 11 28  1  0  0  0  0
 12 13  2  0  0  0  0
 12 21  1  0  0  0  0
 13 14  1  0  0  0  0
 13 18  1  0  0  0  0
 14 15  2  0  0  0  0
 14 29  1  0  0  0  0
 15 16  1  0  0  0  0
 15 30  1  0  0  0  0
 16 17  2  0  0  0  0
 16 31  1  0  0  0  0
 17 18  1  0  0  0  0
 18 19  2  0  0  0  0
 19 20  1  0  0  0  0
 19 32  1  0  0  0  0
 20 21  2  0  0  0  0
 21 33  1  0  0  0  0
M  END
$$$$
