Mpro-x12698_ligand
 OpenBabel04052409413D

 43 46  0  0  1  0  0  0  0  0999 V2000
    9.2377    1.2029   21.2958 O   0  0  0  0  0  0  0  0  0  0  0  0
    8.6797    0.2038   21.7550 C   0  0  0  0  0  0  0  0  0  0  0  0
    9.2078   -0.5019   23.0148 C   0  0  2  0  0  0  0  0  0  0  0  0
    8.5891    0.1118   24.2843 C   0  0  0  0  0  0  0  0  0  0  0  0
    9.3276    1.3860   24.7002 C   0  0  0  0  0  0  0  0  0  0  0  0
   10.6948    1.1092   24.9662 O   0  0  0  0  0  0  0  0  0  0  0  0
   10.7236   -0.4248   23.0508 C   0  0  0  0  0  0  0  0  0  0  0  0
   11.3725    0.3946   24.0042 C   0  0  0  0  0  0  0  0  0  0  0  0
   12.7723    0.4821   23.9858 C   0  0  0  0  0  0  0  0  0  0  0  0
   13.5281   -0.2022   23.0201 C   0  0  0  0  0  0  0  0  0  0  0  0
   11.4861   -1.1644   22.1229 C   0  0  0  0  0  0  0  0  0  0  0  0
   12.8865   -1.0404   22.0928 C   0  0  0  0  0  0  0  0  0  0  0  0
   13.8156   -1.9215   20.9405 Cl  0  0  0  0  0  0  0  0  0  0  0  0
    7.5877   -0.3466   21.2090 N   0  0  0  0  0  0  0  0  0  0  0  0
    6.8436    0.2336   20.1641 C   0  0  0  0  0  0  0  0  0  0  0  0
    5.6720    0.9793   20.4269 C   0  0  0  0  0  0  0  0  0  0  0  0
    5.2099    1.2426   21.8559 C   0  0  0  0  0  0  0  0  0  0  0  0
    4.1381    2.2573   21.9390 N   0  3  0  0  0  0  0  0  0  0  0  0
    3.0825    2.0773   20.9271 C   0  0  0  0  0  0  0  0  0  0  0  0
    3.6737    2.2883   19.5347 C   0  0  0  0  0  0  0  0  0  0  0  0
    4.9300    1.4658   19.3262 C   0  0  0  0  0  0  0  0  0  0  0  0
    5.3986    1.2003   18.0275 C   0  0  0  0  0  0  0  0  0  0  0  0
    6.5185    0.4969   17.7817 N   0  0  0  0  0  0  0  0  0  0  0  0
    7.2244    0.0232   18.8260 C   0  0  0  0  0  0  0  0  0  0  0  0
    8.9301   -1.5555   22.9617 H   0  0  0  0  0  0  0  0  0  0  0  0
    8.6573   -0.5937   25.1097 H   0  0  0  0  0  0  0  0  0  0  0  0
    7.5262    0.3091   24.1448 H   0  0  0  0  0  0  0  0  0  0  0  0
    8.8749    1.8068   25.5978 H   0  0  0  0  0  0  0  0  0  0  0  0
    9.2616    2.1471   23.9255 H   0  0  0  0  0  0  0  0  0  0  0  0
   13.2571    1.1094   24.7064 H   0  0  0  0  0  0  0  0  0  0  0  0
   14.5981   -0.0958   23.0011 H   0  0  0  0  0  0  0  0  0  0  0  0
   10.9852   -1.8203   21.4301 H   0  0  0  0  0  0  0  0  0  0  0  0
    7.1746   -1.1436   21.6788 H   0  0  0  0  0  0  0  0  0  0  0  0
    6.0473    1.5807   22.4662 H   0  0  0  0  0  0  0  0  0  0  0  0
    4.8602    0.3038   22.2793 H   0  0  0  0  0  0  0  0  0  0  0  0
    4.5561    3.1702   21.8000 H   0  0  0  0  0  0  0  0  0  0  0  0
    3.7252    2.2314   22.8642 H   0  0  0  0  0  0  0  0  0  0  0  0
    2.2706    2.7805   21.1120 H   0  0  0  0  0  0  0  0  0  0  0  0
    2.6654    1.0754   21.0102 H   0  0  0  0  0  0  0  0  0  0  0  0
    3.9141    3.3386   19.3976 H   0  0  0  0  0  0  0  0  0  0  0  0
    2.9394    2.0415   18.7735 H   0  0  0  0  0  0  0  0  0  0  0  0
    4.8822    1.5830   17.1627 H   0  0  0  0  0  0  0  0  0  0  0  0
    8.1129   -0.5423   18.5856 H   0  0  0  0  0  0  0  0  0  0  0  0
  1  2  2  0  0  0  0
  2  3  1  0  0  0  0
  2 14  1  0  0  0  0
  3  4  1  0  0  0  0
  3  7  1  0  0  0  0
  3 25  1  6  0  0  0
  4  5  1  0  0  0  0
  4 26  1  0  0  0  0
  4 27  1  0  0  0  0
  5  6  1  0  0  0  0
  5 28  1  0  0  0  0
  5 29  1  0  0  0  0
  6  8  1  0  0  0  0
  7  8  2  0  0  0  0
  7 11  1  0  0  0  0
  8  9  1  0  0  0  0
  9 10  2  0  0  0  0
  9 30  1  0  0  0  0
 10 12  1  0  0  0  0
 10 31  1  0  0  0  0
 11 12  2  0  0  0  0
 11 32  1  0  0  0  0
 12 13  1  0  0  0  0
 14 15  1  0  0  0  0
 14 33  1  0  0  0  0
 15 16  2  0  0  0  0
 15 24  1  0  0  0  0
 16 17  1  0  0  0  0
 16 21  1  0  0  0  0
 17 18  1  0  0  0  0
 17 34  1  0  0  0  0
 17 35  1  0  0  0  0
 18 19  1  0  0  0  0
 18 36  1  0  0  0  0
 18 37  1  0  0  0  0
 19 20  1  0  0  0  0
 19 38  1  0  0  0  0
 19 39  1  0  0  0  0
 20 21  1  0  0  0  0
 20 40  1  0  0  0  0
 20 41  1  0  0  0  0
 21 22  2  0  0  0  0
 22 23  1  0  0  0  0
 22 42  1  0  0  0  0
 23 24  2  0  0  0  0
 24 43  1  0  0  0  0
M  CHG  1  18   1
M  END
$$$$
