Mpro-x12731_ligand
 OpenBabel04052409413D

 45 48  0  0  1  0  0  0  0  0999 V2000
    6.1397   -2.3979   21.0851 O   0  0  0  0  0  0  0  0  0  0  0  0
    7.0814   -1.7063   21.4711 C   0  0  0  0  0  0  0  0  0  0  0  0
    8.0322   -2.2038   22.5918 C   0  0  2  0  0  0  0  0  0  0  0  0
    8.0311   -1.1957   23.7497 C   0  0  0  0  0  0  0  0  0  0  0  0
    6.8104   -0.6834   24.2526 C   0  0  0  0  0  0  0  0  0  0  0  0
    6.7944    0.3076   25.2456 C   0  0  0  0  0  0  0  0  0  0  0  0
    5.2880    0.9595   25.7767 Cl  0  0  0  0  0  0  0  0  0  0  0  0
    8.0056    0.7738   25.7833 C   0  0  0  0  0  0  0  0  0  0  0  0
    9.2261    0.2477   25.3192 C   0  0  0  0  0  0  0  0  0  0  0  0
    9.2510   -0.7334   24.3085 C   0  0  0  0  0  0  0  0  0  0  0  0
   10.4850   -1.1656   23.8812 O   0  0  0  0  0  0  0  0  0  0  0  0
   10.5293   -2.3402   23.0852 C   0  0  0  0  0  0  0  0  0  0  0  0
    9.4584   -2.3069   21.9918 C   0  0  0  0  0  0  0  0  0  0  0  0
    7.6305   -3.6187   23.0939 C   0  0  0  0  0  0  0  0  0  0  0  0
    6.3520   -3.7024   23.8232 N   0  3  0  0  0  0  0  0  0  0  0  0
    7.3166   -0.4826   20.9767 N   0  0  0  0  0  0  0  0  0  0  0  0
    6.5563    0.1282   19.9579 C   0  0  0  0  0  0  0  0  0  0  0  0
    5.3795    0.8649   20.2286 C   0  0  0  0  0  0  0  0  0  0  0  0
    4.8461    1.0000   21.5297 C   0  0  0  0  0  0  0  0  0  0  0  0
    3.6748    1.7491   21.7430 C   0  0  0  0  0  0  0  0  0  0  0  0
    3.0333    2.3803   20.6618 C   0  0  0  0  0  0  0  0  0  0  0  0
    3.5652    2.2669   19.3633 C   0  0  0  0  0  0  0  0  0  0  0  0
    4.7267    1.5014   19.1467 C   0  0  0  0  0  0  0  0  0  0  0  0
    5.2712    1.3585   17.8566 C   0  0  0  0  0  0  0  0  0  0  0  0
    6.3850    0.6473   17.5969 N   0  0  0  0  0  0  0  0  0  0  0  0
    7.0197    0.0614   18.6307 C   0  0  0  0  0  0  0  0  0  0  0  0
    5.8688   -1.0249   23.8536 H   0  0  0  0  0  0  0  0  0  0  0  0
    7.9999    1.5369   26.5468 H   0  0  0  0  0  0  0  0  0  0  0  0
   10.1563    0.6087   25.7311 H   0  0  0  0  0  0  0  0  0  0  0  0
   10.4353   -3.2165   23.7222 H   0  0  0  0  0  0  0  0  0  0  0  0
   11.5169   -2.4048   22.6296 H   0  0  0  0  0  0  0  0  0  0  0  0
    9.6911   -1.4526   21.3544 H   0  0  0  0  0  0  0  0  0  0  0  0
    9.5413   -3.1819   21.3491 H   0  0  0  0  0  0  0  0  0  0  0  0
    8.3992   -4.0429   23.7322 H   0  0  0  0  0  0  0  0  0  0  0  0
    7.5498   -4.2738   22.2401 H   0  0  0  0  0  0  0  0  0  0  0  0
    6.1290   -4.6729   23.9951 H   0  0  0  0  0  0  0  0  0  0  0  0
    6.4451   -3.2170   24.7065 H   0  0  0  0  0  0  0  0  0  0  0  0
    5.6064   -3.2926   23.2744 H   0  0  0  0  0  0  0  0  0  0  0  0
    8.1286    0.0236   21.3080 H   0  0  0  0  0  0  0  0  0  0  0  0
    5.3298    0.5421   22.3736 H   0  0  0  0  0  0  0  0  0  0  0  0
    3.2746    1.8483   22.7409 H   0  0  0  0  0  0  0  0  0  0  0  0
    2.1392    2.9628   20.8265 H   0  0  0  0  0  0  0  0  0  0  0  0
    3.0814    2.7727   18.5399 H   0  0  0  0  0  0  0  0  0  0  0  0
    4.8241    1.8492   17.0080 H   0  0  0  0  0  0  0  0  0  0  0  0
    7.9301   -0.4678   18.3915 H   0  0  0  0  0  0  0  0  0  0  0  0
  1  2  2  0  0  0  0
  2 16  1  0  0  0  0
  3  2  1  6  0  0  0
  3  4  1  0  0  0  0
  3 13  1  0  0  0  0
  3 14  1  0  0  0  0
  4  5  2  0  0  0  0
  4 10  1  0  0  0  0
  5  6  1  0  0  0  0
  5 27  1  0  0  0  0
  6  7  1  0  0  0  0
  6  8  2  0  0  0  0
  8  9  1  0  0  0  0
  8 28  1  0  0  0  0
  9 10  2  0  0  0  0
  9 29  1  0  0  0  0
 10 11  1  0  0  0  0
 11 12  1  0  0  0  0
 12 13  1  0  0  0  0
 12 30  1  0  0  0  0
 12 31  1  0  0  0  0
 13 32  1  0  0  0  0
 13 33  1  0  0  0  0
 14 15  1  0  0  0  0
 14 34  1  0  0  0  0
 14 35  1  0  0  0  0
 15 36  1  0  0  0  0
 15 37  1  0  0  0  0
 15 38  1  0  0  0  0
 16 17  1  0  0  0  0
 16 39  1  0  0  0  0
 17 18  2  0  0  0  0
 17 26  1  0  0  0  0
 18 19  1  0  0  0  0
 18 23  1  0  0  0  0
 19 20  2  0  0  0  0
 19 40  1  0  0  0  0
 20 21  1  0  0  0  0
 20 41  1  0  0  0  0
 21 22  2  0  0  0  0
 21 42  1  0  0  0  0
 22 23  1  0  0  0  0
 22 43  1  0  0  0  0
 23 24  2  0  0  0  0
 24 25  1  0  0  0  0
 24 44  1  0  0  0  0
 25 26  2  0  0  0  0
 26 45  1  0  0  0  0
M  CHG  1  15   1
M  END
$$$$
