Mpro-x11813_ligand
 OpenBabel04052409413D

 42 44  0  0  0  0  0  0  0  0999 V2000
    5.3511   -2.7435   20.7138 O   0  0  0  0  0  0  0  0  0  0  0  0
    6.0591   -1.7389   20.7118 C   0  0  0  0  0  0  0  0  0  0  0  0
    5.7444   -0.5964   19.8021 C   0  0  0  0  0  0  0  0  0  0  0  0
    4.8273    0.4271   20.1517 C   0  0  0  0  0  0  0  0  0  0  0  0
    4.2190    0.5087   21.4272 C   0  0  0  0  0  0  0  0  0  0  0  0
    3.2745    1.5150   21.6988 C   0  0  0  0  0  0  0  0  0  0  0  0
    2.9344    2.4543   20.7093 C   0  0  0  0  0  0  0  0  0  0  0  0
    3.5468    2.3991   19.4441 C   0  0  0  0  0  0  0  0  0  0  0  0
    4.4907    1.3905   19.1689 C   0  0  0  0  0  0  0  0  0  0  0  0
    5.1012    1.3103   17.9042 C   0  0  0  0  0  0  0  0  0  0  0  0
    6.0080    0.3680   17.5851 N   0  0  0  0  0  0  0  0  0  0  0  0
    6.3139   -0.5593   18.5127 C   0  0  0  0  0  0  0  0  0  0  0  0
    7.1285   -1.5824   21.4971 N   0  0  0  0  0  0  0  0  0  0  0  0
    7.5893   -2.5710   22.4645 C   0  0  0  0  0  0  0  0  0  0  0  0
    9.1113   -2.5391   22.5541 C   0  0  0  0  0  0  0  0  0  0  0  0
    9.4872   -1.2522   23.0122 O   0  0  0  0  0  0  0  0  0  0  0  0
   10.8180   -0.9128   22.9616 C   0  0  0  0  0  0  0  0  0  0  0  0
   11.1329    0.4416   23.2046 C   0  0  0  0  0  0  0  0  0  0  0  0
   10.0805    1.2933   23.4631 O   0  0  0  0  0  0  0  0  0  0  0  0
   10.3538    2.6826   23.5496 C   0  0  0  0  0  0  0  0  0  0  0  0
   11.8511   -1.8384   22.6748 C   0  0  0  0  0  0  0  0  0  0  0  0
   13.1878   -1.4147   22.6147 C   0  0  0  0  0  0  0  0  0  0  0  0
   13.4959   -0.0675   22.8541 C   0  0  0  0  0  0  0  0  0  0  0  0
   12.4833    0.8573   23.1542 C   0  0  0  0  0  0  0  0  0  0  0  0
    4.4635   -0.1915   22.2095 H   0  0  0  0  0  0  0  0  0  0  0  0
    2.8067    1.5619   22.6703 H   0  0  0  0  0  0  0  0  0  0  0  0
    2.2058    3.2215   20.9242 H   0  0  0  0  0  0  0  0  0  0  0  0
    3.2854    3.1273   18.6898 H   0  0  0  0  0  0  0  0  0  0  0  0
    4.8631    2.0177   17.1246 H   0  0  0  0  0  0  0  0  0  0  0  0
    7.0158   -1.3133   18.1947 H   0  0  0  0  0  0  0  0  0  0  0  0
    7.6556   -0.7213   21.4265 H   0  0  0  0  0  0  0  0  0  0  0  0
    7.2729   -3.5768   22.1828 H   0  0  0  0  0  0  0  0  0  0  0  0
    7.1473   -2.3551   23.4377 H   0  0  0  0  0  0  0  0  0  0  0  0
    9.5351   -2.7422   21.5694 H   0  0  0  0  0  0  0  0  0  0  0  0
    9.4635   -3.3037   23.2479 H   0  0  0  0  0  0  0  0  0  0  0  0
    9.4211    3.2248   23.7038 H   0  0  0  0  0  0  0  0  0  0  0  0
   11.0085    2.9055   24.3901 H   0  0  0  0  0  0  0  0  0  0  0  0
   10.8069    3.0569   22.6300 H   0  0  0  0  0  0  0  0  0  0  0  0
   11.6401   -2.8791   22.4932 H   0  0  0  0  0  0  0  0  0  0  0  0
   13.9697   -2.1208   22.3806 H   0  0  0  0  0  0  0  0  0  0  0  0
   14.5084    0.2809   22.7801 H   0  0  0  0  0  0  0  0  0  0  0  0
   12.7693    1.8849   23.3186 H   0  0  0  0  0  0  0  0  0  0  0  0
  1  2  2  0  0  0  0
  2  3  1  0  0  0  0
  2 13  1  0  0  0  0
  3  4  2  0  0  0  0
  3 12  1  0  0  0  0
  4  5  1  0  0  0  0
  4  9  1  0  0  0  0
  5  6  2  0  0  0  0
  5 25  1  0  0  0  0
  6  7  1  0  0  0  0
  6 26  1  0  0  0  0
  7  8  2  0  0  0  0
  7 27  1  0  0  0  0
  8  9  1  0  0  0  0
  8 28  1  0  0  0  0
  9 10  2  0  0  0  0
 10 11  1  0  0  0  0
 10 29  1  0  0  0  0
 11 12  2  0  0  0  0
 12 30  1  0  0  0  0
 13 14  1  0  0  0  0
 13 31  1  0  0  0  0
 14 15  1  0  0  0  0
 14 32  1  0  0  0  0
 14 33  1  0  0  0  0
 15 16  1  0  0  0  0
 15 34  1  0  0  0  0
 15 35  1  0  0  0  0
 16 17  1  0  0  0  0
 17 18  2  0  0  0  0
 17 21  1  0  0  0  0
 18 19  1  0  0  0  0
 18 24  1  0  0  0  0
 19 20  1  0  0  0  0
 20 36  1  0  0  0  0
 20 37  1  0  0  0  0
 20 38  1  0  0  0  0
 21 22  2  0  0  0  0
 21 39  1  0  0  0  0
 22 23  1  0  0  0  0
 22 40  1  0  0  0  0
 23 24  2  0  0  0  0
 23 41  1  0  0  0  0
 24 42  1  0  0  0  0
M  END
$$$$
