Mpro-x11543_ligand
 OpenBabel04052409413D

 35 37  0  0  0  0  0  0  0  0999 V2000
    8.8981    0.8815   21.0785 O   0  0  0  0  0  0  0  0  0  0  0  0
    8.3672   -0.1724   21.4363 C   0  0  0  0  0  0  0  0  0  0  0  0
    8.9132   -0.9711   22.6266 C   0  0  0  0  0  0  0  0  0  0  0  0
   10.3954   -0.7229   22.8007 C   0  0  0  0  0  0  0  0  0  0  0  0
   10.8592    0.2772   23.6763 C   0  0  0  0  0  0  0  0  0  0  0  0
   12.2334    0.5740   23.7409 C   0  0  0  0  0  0  0  0  0  0  0  0
   13.1429   -0.1334   22.9305 C   0  0  0  0  0  0  0  0  0  0  0  0
   11.3114   -1.4607   22.0334 C   0  0  0  0  0  0  0  0  0  0  0  0
   12.6794   -1.1536   22.0783 C   0  0  0  0  0  0  0  0  0  0  0  0
   13.7642   -2.0159   21.0598 Cl  0  0  0  0  0  0  0  0  0  0  0  0
    7.2875   -0.6870   20.8357 N   0  0  0  0  0  0  0  0  0  0  0  0
    6.5483   -0.0237   19.8349 C   0  0  0  0  0  0  0  0  0  0  0  0
    5.3596    0.6720   20.1524 C   0  0  0  0  0  0  0  0  0  0  0  0
    4.8631    0.7513   21.5633 C   0  0  0  0  0  0  0  0  0  0  0  0
    3.9528    1.8533   22.0515 C   0  0  0  0  0  0  0  0  0  0  0  0
    5.3954    1.8127   22.4951 C   0  0  0  0  0  0  0  0  0  0  0  0
    4.6681    1.3053   19.0995 C   0  0  0  0  0  0  0  0  0  0  0  0
    5.1807    1.2098   17.7950 C   0  0  0  0  0  0  0  0  0  0  0  0
    6.3026    0.5318   17.4927 N   0  0  0  0  0  0  0  0  0  0  0  0
    6.9756   -0.0678   18.4952 C   0  0  0  0  0  0  0  0  0  0  0  0
    8.7540   -2.0382   22.4707 H   0  0  0  0  0  0  0  0  0  0  0  0
    8.3718   -0.6909   23.5306 H   0  0  0  0  0  0  0  0  0  0  0  0
   10.1560    0.8329   24.2728 H   0  0  0  0  0  0  0  0  0  0  0  0
   12.5823    1.3572   24.3944 H   0  0  0  0  0  0  0  0  0  0  0  0
   14.1916    0.1115   22.9585 H   0  0  0  0  0  0  0  0  0  0  0  0
   10.9554   -2.2429   21.3840 H   0  0  0  0  0  0  0  0  0  0  0  0
    6.8826   -1.5262   21.2344 H   0  0  0  0  0  0  0  0  0  0  0  0
    4.7040   -0.2436   21.9728 H   0  0  0  0  0  0  0  0  0  0  0  0
    3.2012    1.5849   22.7885 H   0  0  0  0  0  0  0  0  0  0  0  0
    3.6762    2.6609   21.3768 H   0  0  0  0  0  0  0  0  0  0  0  0
    6.0654    2.5629   22.0784 H   0  0  0  0  0  0  0  0  0  0  0  0
    5.5895    1.5309   23.5278 H   0  0  0  0  0  0  0  0  0  0  0  0
    3.7627    1.8659   19.2735 H   0  0  0  0  0  0  0  0  0  0  0  0
    4.6918    1.7105   16.9762 H   0  0  0  0  0  0  0  0  0  0  0  0
    7.8785   -0.5934   18.2207 H   0  0  0  0  0  0  0  0  0  0  0  0
  1  2  2  0  0  0  0
  2  3  1  0  0  0  0
  2 11  1  0  0  0  0
  3  4  1  0  0  0  0
  3 21  1  0  0  0  0
  3 22  1  0  0  0  0
  4  5  2  0  0  0  0
  4  8  1  0  0  0  0
  5  6  1  0  0  0  0
  5 23  1  0  0  0  0
  6  7  2  0  0  0  0
  6 24  1  0  0  0  0
  7  9  1  0  0  0  0
  7 25  1  0  0  0  0
  8  9  2  0  0  0  0
  8 26  1  0  0  0  0
  9 10  1  0  0  0  0
 11 12  1  0  0  0  0
 11 27  1  0  0  0  0
 12 13  2  0  0  0  0
 12 20  1  0  0  0  0
 13 14  1  0  0  0  0
 13 17  1  0  0  0  0
 14 15  1  0  0  0  0
 14 16  1  0  0  0  0
 14 28  1  0  0  0  0
 15 16  1  0  0  0  0
 15 29  1  0  0  0  0
 15 30  1  0  0  0  0
 16 31  1  0  0  0  0
 16 32  1  0  0  0  0
 17 18  2  0  0  0  0
 17 33  1  0  0  0  0
 18 19  1  0  0  0  0
 18 34  1  0  0  0  0
 19 20  2  0  0  0  0
 20 35  1  0  0  0  0
M  END
$$$$
