Mpro-x12696_ligand
 OpenBabel04052409413D

 40 43  0  0  1  0  0  0  0  0999 V2000
   13.8140   -1.8569   20.8967 Cl  0  0  0  0  0  0  0  0  0  0  0  0
   12.8383   -0.9262   21.9656 C   0  0  0  0  0  0  0  0  0  0  0  0
   13.4185    0.0981   22.7333 C   0  0  0  0  0  0  0  0  0  0  0  0
   12.6303    0.8276   23.6411 C   0  0  0  0  0  0  0  0  0  0  0  0
   11.4598   -1.1861   22.0705 C   0  0  0  0  0  0  0  0  0  0  0  0
   10.6605   -0.4229   22.9457 C   0  0  0  0  0  0  0  0  0  0  0  0
   11.2627    0.5416   23.7865 C   0  0  0  0  0  0  0  0  0  0  0  0
   10.5404    1.2068   24.7461 O   0  0  0  0  0  0  0  0  0  0  0  0
    9.4547    0.4517   25.2673 C   0  0  0  0  0  0  0  0  0  0  0  0
    8.4678    0.1030   24.1495 C   0  0  0  0  0  0  0  0  0  0  0  0
    9.1433   -0.5751   22.9329 C   0  0  1  0  0  0  0  0  0  0  0  0
    8.5958    0.0514   21.6397 C   0  0  0  0  0  0  0  0  0  0  0  0
    9.1441    1.0346   21.1344 O   0  0  0  0  0  0  0  0  0  0  0  0
    7.4933   -0.5137   21.1281 N   0  0  0  0  0  0  0  0  0  0  0  0
    6.7601    0.0527   20.0677 C   0  0  0  0  0  0  0  0  0  0  0  0
    7.2951    0.1177   18.7591 C   0  0  0  0  0  0  0  0  0  0  0  0
    6.6525    0.6969   17.7129 N   0  0  0  0  0  0  0  0  0  0  0  0
    5.4433    1.2665   17.9177 C   0  0  0  0  0  0  0  0  0  0  0  0
    5.4786    0.6143   20.2425 C   0  0  0  0  0  0  0  0  0  0  0  0
    4.6302    0.7708   21.3538 N   0  0  0  0  0  0  0  0  0  0  0  0
    4.9200    0.3077   22.7052 C   0  0  0  0  0  0  0  0  0  0  0  0
    4.8489    1.2280   19.1850 C   0  0  0  0  0  0  0  0  0  0  0  0
    3.6533    1.7553   19.6639 N   0  0  0  0  0  0  0  0  0  0  0  0
    3.5340    1.4705   20.9740 C   0  0  0  0  0  0  0  0  0  0  0  0
    2.5895    1.7937   21.6920 O   0  0  0  0  0  0  0  0  0  0  0  0
   14.4684    0.3203   22.6370 H   0  0  0  0  0  0  0  0  0  0  0  0
   13.0765    1.6020   24.2365 H   0  0  0  0  0  0  0  0  0  0  0  0
   11.0066   -1.9571   21.4673 H   0  0  0  0  0  0  0  0  0  0  0  0
    8.9523    1.0365   26.0371 H   0  0  0  0  0  0  0  0  0  0  0  0
    9.8324   -0.4512   25.7497 H   0  0  0  0  0  0  0  0  0  0  0  0
    7.9876    1.0385   23.8561 H   0  0  0  0  0  0  0  0  0  0  0  0
    7.6672   -0.5303   24.5328 H   0  0  0  0  0  0  0  0  0  0  0  0
    8.9225   -1.6423   22.9401 H   0  0  0  0  0  0  0  0  0  0  0  0
    7.0594   -1.2671   21.6467 H   0  0  0  0  0  0  0  0  0  0  0  0
    8.2721   -0.2902   18.5435 H   0  0  0  0  0  0  0  0  0  0  0  0
    4.9914    1.7745   17.0829 H   0  0  0  0  0  0  0  0  0  0  0  0
    4.0201    0.2607   23.3194 H   0  0  0  0  0  0  0  0  0  0  0  0
    5.3507   -0.6913   22.6925 H   0  0  0  0  0  0  0  0  0  0  0  0
    5.6256    0.9841   23.1874 H   0  0  0  0  0  0  0  0  0  0  0  0
    3.0036    2.2847   19.0984 H   0  0  0  0  0  0  0  0  0  0  0  0
  1  2  1  0  0  0  0
  2  3  2  0  0  0  0
  2  5  1  0  0  0  0
  3  4  1  0  0  0  0
  3 26  1  0  0  0  0
  4  7  2  0  0  0  0
  4 27  1  0  0  0  0
  5  6  2  0  0  0  0
  5 28  1  0  0  0  0
  6  7  1  0  0  0  0
  6 11  1  0  0  0  0
  7  8  1  0  0  0  0
  8  9  1  0  0  0  0
  9 10  1  0  0  0  0
  9 29  1  0  0  0  0
  9 30  1  0  0  0  0
 10 11  1  0  0  0  0
 10 31  1  0  0  0  0
 10 32  1  0  0  0  0
 11 12  1  0  0  0  0
 11 33  1  1  0  0  0
 12 13  2  0  0  0  0
 12 14  1  0  0  0  0
 14 15  1  0  0  0  0
 14 34  1  0  0  0  0
 15 16  2  0  0  0  0
 15 19  1  0  0  0  0
 16 17  1  0  0  0  0
 16 35  1  0  0  0  0
 17 18  2  0  0  0  0
 18 22  1  0  0  0  0
 18 36  1  0  0  0  0
 19 20  1  0  0  0  0
 19 22  2  0  0  0  0
 20 21  1  0  0  0  0
 20 24  1  0  0  0  0
 21 37  1  0  0  0  0
 21 38  1  0  0  0  0
 21 39  1  0  0  0  0
 22 23  1  0  0  0  0
 23 24  1  0  0  0  0
 23 40  1  0  0  0  0
 24 25  2  0  0  0  0
M  END
$$$$
