Mpro-x2646_ligand
 OpenBabel04052409413D

 31 32  0  0  0  0  0  0  0  0999 V2000
   13.7680   -1.8639   21.1696 Cl  0  0  0  0  0  0  0  0  0  0  0  0
   12.6331   -1.0540   22.1761 C   0  0  0  0  0  0  0  0  0  0  0  0
   13.0455   -0.0368   23.0584 C   0  0  0  0  0  0  0  0  0  0  0  0
   12.1006    0.6094   23.8794 C   0  0  0  0  0  0  0  0  0  0  0  0
   10.7397    0.2592   23.7960 C   0  0  0  0  0  0  0  0  0  0  0  0
   11.2791   -1.4135   22.1063 C   0  0  0  0  0  0  0  0  0  0  0  0
   10.3261   -0.7387   22.8894 C   0  0  0  0  0  0  0  0  0  0  0  0
    8.8565   -1.0419   22.6842 C   0  0  0  0  0  0  0  0  0  0  0  0
    8.2893   -0.1963   21.5364 C   0  0  0  0  0  0  0  0  0  0  0  0
    8.8964    0.7880   21.1069 O   0  0  0  0  0  0  0  0  0  0  0  0
    7.0990   -0.5809   21.0563 N   0  0  0  0  0  0  0  0  0  0  0  0
    6.4243    0.0911   20.0161 C   0  0  0  0  0  0  0  0  0  0  0  0
    5.2465    0.8281   20.2684 C   0  0  0  0  0  0  0  0  0  0  0  0
    4.6591    0.9233   21.6614 C   0  0  0  0  0  0  0  0  0  0  0  0
    6.9179    0.0376   18.6975 C   0  0  0  0  0  0  0  0  0  0  0  0
    6.3190    0.6583   17.6623 N   0  0  0  0  0  0  0  0  0  0  0  0
    5.2088    1.3812   17.9120 C   0  0  0  0  0  0  0  0  0  0  0  0
    4.6379    1.5017   19.1912 C   0  0  0  0  0  0  0  0  0  0  0  0
   14.0837    0.2450   23.1065 H   0  0  0  0  0  0  0  0  0  0  0  0
   12.4137    1.3911   24.5525 H   0  0  0  0  0  0  0  0  0  0  0  0
   10.0106    0.7827   24.3968 H   0  0  0  0  0  0  0  0  0  0  0  0
   10.9639   -2.1891   21.4271 H   0  0  0  0  0  0  0  0  0  0  0  0
    8.2988   -0.8508   23.6002 H   0  0  0  0  0  0  0  0  0  0  0  0
    8.7382   -2.1014   22.4516 H   0  0  0  0  0  0  0  0  0  0  0  0
    6.6165   -1.3430   21.5147 H   0  0  0  0  0  0  0  0  0  0  0  0
    3.7610    1.5398   21.6696 H   0  0  0  0  0  0  0  0  0  0  0  0
    4.3974   -0.0663   22.0344 H   0  0  0  0  0  0  0  0  0  0  0  0
    5.3798    1.3680   22.3468 H   0  0  0  0  0  0  0  0  0  0  0  0
    7.8181   -0.5140   18.4660 H   0  0  0  0  0  0  0  0  0  0  0  0
    4.7823    1.8999   17.0690 H   0  0  0  0  0  0  0  0  0  0  0  0
    3.7548    2.1053   19.3358 H   0  0  0  0  0  0  0  0  0  0  0  0
  1  2  1  0  0  0  0
  2  3  2  0  0  0  0
  2  6  1  0  0  0  0
  3  4  1  0  0  0  0
  3 19  1  0  0  0  0
  4  5  2  0  0  0  0
  4 20  1  0  0  0  0
  5  7  1  0  0  0  0
  5 21  1  0  0  0  0
  6  7  2  0  0  0  0
  6 22  1  0  0  0  0
  7  8  1  0  0  0  0
  8  9  1  0  0  0  0
  8 23  1  0  0  0  0
  8 24  1  0  0  0  0
  9 10  2  0  0  0  0
  9 11  1  0  0  0  0
 11 12  1  0  0  0  0
 11 25  1  0  0  0  0
 12 13  2  0  0  0  0
 12 15  1  0  0  0  0
 13 14  1  0  0  0  0
 13 18  1  0  0  0  0
 14 26  1  0  0  0  0
 14 27  1  0  0  0  0
 14 28  1  0  0  0  0
 15 16  2  0  0  0  0
 15 29  1  0  0  0  0
 16 17  1  0  0  0  0
 17 18  2  0  0  0  0
 17 30  1  0  0  0  0
 18 31  1  0  0  0  0
M  END
$$$$
