Mpro-x10371_ligand
 OpenBabel04052409413D

 37 39  0  0  1  0  0  0  0  0999 V2000
    6.1565    0.6261   17.5606 N   0  0  0  0  0  0  0  0  0  0  0  0
   12.7132    4.1189   21.6963 N   0  0  0  0  0  0  0  0  0  0  0  0
    7.1282   -0.5960   21.0307 C   0  0  0  0  0  0  0  0  0  0  0  0
   12.3834    1.2808   23.0175 C   0  0  0  0  0  0  0  0  0  0  0  0
   12.7367    2.5281   23.4784 O   0  0  0  0  0  0  0  0  0  0  0  0
   11.7627   -1.3171   22.0781 C   0  0  0  0  0  0  0  0  0  0  0  0
    6.3879    0.1401   19.9265 C   0  0  0  0  0  0  0  0  0  0  0  0
    6.7653   -0.0160   18.5784 C   0  0  0  0  0  0  0  0  0  0  0  0
    5.1408    1.4620   17.8547 C   0  0  0  0  0  0  0  0  0  0  0  0
    4.6874    1.6925   19.1659 C   0  0  0  0  0  0  0  0  0  0  0  0
   13.4044    0.3340   22.8032 C   0  0  0  0  0  0  0  0  0  0  0  0
   12.4340    4.9686   23.5804 C   0  0  0  0  0  0  0  0  0  0  0  0
   13.0989   -0.9579   22.3334 C   0  0  0  0  0  0  0  0  0  0  0  0
   12.0517    3.6439   22.9159 C   0  0  1  0  0  0  0  0  0  0  0  0
   13.0646    5.3268   22.2367 C   0  0  0  0  0  0  0  0  0  0  0  0
    8.4825    0.0537   21.3324 C   0  0  0  0  0  0  0  0  0  0  0  0
    9.4072   -0.7400   21.9067 N   0  0  0  0  0  0  0  0  0  0  0  0
    8.6781    1.2343   21.0388 O   0  0  0  0  0  0  0  0  0  0  0  0
   13.6420    6.2850   21.7671 O   0  0  0  0  0  0  0  0  0  0  0  0
   10.7330   -0.3707   22.2511 C   0  0  0  0  0  0  0  0  0  0  0  0
    5.3233    1.0151   20.2232 C   0  0  0  0  0  0  0  0  0  0  0  0
   11.0435    0.9083   22.7646 C   0  0  0  0  0  0  0  0  0  0  0  0
   12.8507    3.7131   20.7822 H   0  0  0  0  0  0  0  0  0  0  0  0
    7.2640   -1.6387   20.7430 H   0  0  0  0  0  0  0  0  0  0  0  0
    6.5285   -0.5881   21.9404 H   0  0  0  0  0  0  0  0  0  0  0  0
   11.5355   -2.3046   21.7074 H   0  0  0  0  0  0  0  0  0  0  0  0
    7.5863   -0.6639   18.3104 H   0  0  0  0  0  0  0  0  0  0  0  0
    4.6898    1.9721   17.0190 H   0  0  0  0  0  0  0  0  0  0  0  0
    3.8761    2.3803   19.3516 H   0  0  0  0  0  0  0  0  0  0  0  0
   14.4309    0.6087   22.9809 H   0  0  0  0  0  0  0  0  0  0  0  0
   13.1381    4.8739   24.4052 H   0  0  0  0  0  0  0  0  0  0  0  0
   11.5724    5.5718   23.8657 H   0  0  0  0  0  0  0  0  0  0  0  0
   13.8892   -1.6751   22.1655 H   0  0  0  0  0  0  0  0  0  0  0  0
   10.9694    3.5559   22.8201 H   0  0  0  0  0  0  0  0  0  0  0  0
    9.1699   -1.7160   22.0144 H   0  0  0  0  0  0  0  0  0  0  0  0
    5.0010    1.1711   21.2420 H   0  0  0  0  0  0  0  0  0  0  0  0
   10.2414    1.6006   22.9625 H   0  0  0  0  0  0  0  0  0  0  0  0
  1  8  2  0  0  0  0
  1  9  1  0  0  0  0
  2 14  1  0  0  0  0
  2 15  1  0  0  0  0
  2 23  1  0  0  0  0
  3  7  1  0  0  0  0
  3 16  1  0  0  0  0
  3 24  1  0  0  0  0
  3 25  1  0  0  0  0
  4  5  1  0  0  0  0
  4 11  2  0  0  0  0
  4 22  1  0  0  0  0
  5 14  1  0  0  0  0
  6 13  2  0  0  0  0
  6 20  1  0  0  0  0
  6 26  1  0  0  0  0
  7  8  1  0  0  0  0
  7 21  2  0  0  0  0
  8 27  1  0  0  0  0
  9 10  2  0  0  0  0
  9 28  1  0  0  0  0
 10 21  1  0  0  0  0
 10 29  1  0  0  0  0
 11 13  1  0  0  0  0
 11 30  1  0  0  0  0
 12 14  1  0  0  0  0
 12 15  1  0  0  0  0
 12 31  1  0  0  0  0
 12 32  1  0  0  0  0
 13 33  1  0  0  0  0
 14 34  1  6  0  0  0
 15 19  2  0  0  0  0
 16 17  1  0  0  0  0
 16 18  2  0  0  0  0
 17 20  1  0  0  0  0
 17 35  1  0  0  0  0
 20 22  2  0  0  0  0
 21 36  1  0  0  0  0
 22 37  1  0  0  0  0
M  END
$$$$
