Mpro-x12321_ligand
 OpenBabel04052409413D

 43 45  0  0  1  0  0  0  0  0999 V2000
    6.3572    0.9122   25.5345 F   0  0  0  0  0  0  0  0  0  0  0  0
    5.7266   -0.1888   25.9384 C   0  0  0  0  0  0  0  0  0  0  0  0
    4.5124    0.1510   26.3696 F   0  0  0  0  0  0  0  0  0  0  0  0
    5.5734   -1.0092   24.8986 F   0  0  0  0  0  0  0  0  0  0  0  0
    6.4599   -0.9200   27.0553 C   0  0  2  0  0  0  0  0  0  0  0  0
    6.9254   -0.2133   28.3046 C   0  0  0  0  0  0  0  0  0  0  0  0
    7.9495   -0.8195   27.3687 C   0  0  2  0  0  0  0  0  0  0  0  0
    8.8898    0.1237   26.7796 N   0  0  0  0  0  0  0  0  0  0  0  0
    9.5119   -0.1655   25.5579 C   0  0  0  0  0  0  0  0  0  0  0  0
   10.7996    0.3543   25.3214 C   0  0  0  0  0  0  0  0  0  0  0  0
   11.4535    0.1167   24.0973 C   0  0  0  0  0  0  0  0  0  0  0  0
   13.0505    0.7057   23.8333 Cl  0  0  0  0  0  0  0  0  0  0  0  0
   10.8049   -0.6089   23.0855 C   0  0  0  0  0  0  0  0  0  0  0  0
    8.8777   -0.9155   24.5444 C   0  0  0  0  0  0  0  0  0  0  0  0
    9.5001   -1.0968   23.2935 C   0  0  0  0  0  0  0  0  0  0  0  0
    8.7463   -1.7621   22.1554 C   0  0  0  0  0  0  0  0  0  0  0  0
    8.0000   -0.7155   21.3156 C   0  0  0  0  0  0  0  0  0  0  0  0
    8.4542    0.4233   21.1753 O   0  0  0  0  0  0  0  0  0  0  0  0
    6.8395   -1.1041   20.7667 N   0  0  0  0  0  0  0  0  0  0  0  0
    6.1143   -0.3180   19.8434 C   0  0  0  0  0  0  0  0  0  0  0  0
    4.9439    0.3812   20.2152 C   0  0  0  0  0  0  0  0  0  0  0  0
    4.3931    0.3123   21.6270 C   0  0  0  0  0  0  0  0  0  0  0  0
    6.5580   -0.2267   18.5092 C   0  0  0  0  0  0  0  0  0  0  0  0
    5.9384    0.5181   17.5721 N   0  0  0  0  0  0  0  0  0  0  0  0
    4.8396    1.2073   17.9396 C   0  0  0  0  0  0  0  0  0  0  0  0
    4.3020    1.1712   19.2397 C   0  0  0  0  0  0  0  0  0  0  0  0
    6.0203   -1.8974   27.2460 H   0  0  0  0  0  0  0  0  0  0  0  0
    6.7582   -0.7136   29.2564 H   0  0  0  0  0  0  0  0  0  0  0  0
    6.8361    0.8715   28.3258 H   0  0  0  0  0  0  0  0  0  0  0  0
    8.4598   -1.7211   27.7033 H   0  0  0  0  0  0  0  0  0  0  0  0
    9.4268    0.6702   27.4420 H   0  0  0  0  0  0  0  0  0  0  0  0
   11.2909    0.9393   26.0794 H   0  0  0  0  0  0  0  0  0  0  0  0
   11.2991   -0.7714   22.1415 H   0  0  0  0  0  0  0  0  0  0  0  0
    7.8922   -1.3200   24.6974 H   0  0  0  0  0  0  0  0  0  0  0  0
    8.0481   -2.5000   22.5537 H   0  0  0  0  0  0  0  0  0  0  0  0
    9.4453   -2.2995   21.5141 H   0  0  0  0  0  0  0  0  0  0  0  0
    6.4904   -2.0304   20.9676 H   0  0  0  0  0  0  0  0  0  0  0  0
    3.4175    0.7948   21.6934 H   0  0  0  0  0  0  0  0  0  0  0  0
    4.2768   -0.7242   21.9452 H   0  0  0  0  0  0  0  0  0  0  0  0
    5.0696    0.8110   22.3222 H   0  0  0  0  0  0  0  0  0  0  0  0
    7.4412   -0.7582   18.1871 H   0  0  0  0  0  0  0  0  0  0  0  0
    4.3798    1.8094   17.1732 H   0  0  0  0  0  0  0  0  0  0  0  0
    3.4154    1.7406   19.4761 H   0  0  0  0  0  0  0  0  0  0  0  0
  1  2  1  0  0  0  0
  2  3  1  0  0  0  0
  2  4  1  0  0  0  0
  2  5  1  0  0  0  0
  5  6  1  0  0  0  0
  5  7  1  0  0  0  0
  5 27  1  1  0  0  0
  6  7  1  0  0  0  0
  6 28  1  0  0  0  0
  6 29  1  0  0  0  0
  7  8  1  0  0  0  0
  7 30  1  1  0  0  0
  8  9  1  0  0  0  0
  8 31  1  0  0  0  0
  9 10  2  0  0  0  0
  9 14  1  0  0  0  0
 10 11  1  0  0  0  0
 10 32  1  0  0  0  0
 11 12  1  0  0  0  0
 11 13  2  0  0  0  0
 13 15  1  0  0  0  0
 13 33  1  0  0  0  0
 14 15  2  0  0  0  0
 14 34  1  0  0  0  0
 15 16  1  0  0  0  0
 16 17  1  0  0  0  0
 16 35  1  0  0  0  0
 16 36  1  0  0  0  0
 17 18  2  0  0  0  0
 17 19  1  0  0  0  0
 19 20  1  0  0  0  0
 19 37  1  0  0  0  0
 20 21  2  0  0  0  0
 20 23  1  0  0  0  0
 21 22  1  0  0  0  0
 21 26  1  0  0  0  0
 22 38  1  0  0  0  0
 22 39  1  0  0  0  0
 22 40  1  0  0  0  0
 23 24  2  0  0  0  0
 23 41  1  0  0  0  0
 24 25  1  0  0  0  0
 25 26  2  0  0  0  0
 25 42  1  0  0  0  0
 26 43  1  0  0  0  0
M  END
$$$$
