Mpro-x11742_ligand
 OpenBabel04052409413D

 31 33  0  0  0  0  0  0  0  0999 V2000
    8.8217    0.8890   21.0990 O   0  0  0  0  0  0  0  0  0  0  0  0
    8.2694   -0.1571   21.4498 C   0  0  0  0  0  0  0  0  0  0  0  0
    8.7897   -0.9662   22.6450 C   0  0  0  0  0  0  0  0  0  0  0  0
   10.2666   -0.7029   22.8513 C   0  0  0  0  0  0  0  0  0  0  0  0
   10.6980    0.3184   23.7207 C   0  0  0  0  0  0  0  0  0  0  0  0
   12.0654    0.6382   23.8053 C   0  0  0  0  0  0  0  0  0  0  0  0
   13.0016   -0.0607   23.0193 C   0  0  0  0  0  0  0  0  0  0  0  0
   11.2099   -1.4333   22.1073 C   0  0  0  0  0  0  0  0  0  0  0  0
   12.5722   -1.0992   22.1714 C   0  0  0  0  0  0  0  0  0  0  0  0
   13.6986   -1.9565   21.1945 Cl  0  0  0  0  0  0  0  0  0  0  0  0
    7.1897   -0.6485   20.8317 N   0  0  0  0  0  0  0  0  0  0  0  0
    6.5115    0.0243   19.8011 C   0  0  0  0  0  0  0  0  0  0  0  0
    5.3758    0.7958   20.0761 C   0  0  0  0  0  0  0  0  0  0  0  0
    4.6638    1.1178   21.2168 N   0  0  0  0  0  0  0  0  0  0  0  0
    3.6784    1.9362   20.8190 C   0  0  0  0  0  0  0  0  0  0  0  0
    3.6262    2.2104   19.5173 N   0  0  0  0  0  0  0  0  0  0  0  0
    4.7075    1.4929   19.0314 C   0  0  0  0  0  0  0  0  0  0  0  0
    5.2193    1.3649   17.7175 C   0  0  0  0  0  0  0  0  0  0  0  0
    6.3101    0.6029   17.4634 N   0  0  0  0  0  0  0  0  0  0  0  0
    6.9417   -0.0438   18.4661 C   0  0  0  0  0  0  0  0  0  0  0  0
    8.6312   -2.0325   22.4779 H   0  0  0  0  0  0  0  0  0  0  0  0
    8.2299   -0.6925   23.5400 H   0  0  0  0  0  0  0  0  0  0  0  0
    9.9769    0.8798   24.2931 H   0  0  0  0  0  0  0  0  0  0  0  0
   12.3925    1.4353   24.4525 H   0  0  0  0  0  0  0  0  0  0  0  0
   14.0461    0.1998   23.0647 H   0  0  0  0  0  0  0  0  0  0  0  0
   10.8787   -2.2284   21.4603 H   0  0  0  0  0  0  0  0  0  0  0  0
    6.7573   -1.4847   21.2075 H   0  0  0  0  0  0  0  0  0  0  0  0
    4.8525    0.8481   22.1741 H   0  0  0  0  0  0  0  0  0  0  0  0
    2.9714    2.3600   21.5160 H   0  0  0  0  0  0  0  0  0  0  0  0
    4.7833    1.8913   16.8852 H   0  0  0  0  0  0  0  0  0  0  0  0
    7.8164   -0.6162   18.1949 H   0  0  0  0  0  0  0  0  0  0  0  0
  1  2  2  0  0  0  0
  2  3  1  0  0  0  0
  2 11  1  0  0  0  0
  3  4  1  0  0  0  0
  3 21  1  0  0  0  0
  3 22  1  0  0  0  0
  4  5  2  0  0  0  0
  4  8  1  0  0  0  0
  5  6  1  0  0  0  0
  5 23  1  0  0  0  0
  6  7  2  0  0  0  0
  6 24  1  0  0  0  0
  7  9  1  0  0  0  0
  7 25  1  0  0  0  0
  8  9  2  0  0  0  0
  8 26  1  0  0  0  0
  9 10  1  0  0  0  0
 11 12  1  0  0  0  0
 11 27  1  0  0  0  0
 12 13  2  0  0  0  0
 12 20  1  0  0  0  0
 13 14  1  0  0  0  0
 13 17  1  0  0  0  0
 14 15  1  0  0  0  0
 14 28  1  0  0  0  0
 15 16  2  0  0  0  0
 15 29  1  0  0  0  0
 16 17  1  0  0  0  0
 17 18  2  0  0  0  0
 18 19  1  0  0  0  0
 18 30  1  0  0  0  0
 19 20  2  0  0  0  0
 20 31  1  0  0  0  0
M  END
$$$$
