Mpro-x12582_ligand
 OpenBabel04052409413D

 42 45  0  0  0  0  0  0  0  0999 V2000
    5.4203   -2.6051   20.6536 O   0  0  0  0  0  0  0  0  0  0  0  0
    5.7161   -1.4208   20.8223 C   0  0  0  0  0  0  0  0  0  0  0  0
    5.3078   -0.4250   19.7796 C   0  0  0  0  0  0  0  0  0  0  0  0
    4.3437    0.5928   20.0095 C   0  0  0  0  0  0  0  0  0  0  0  0
    3.6431    0.7359   21.2327 C   0  0  0  0  0  0  0  0  0  0  0  0
    2.6952    1.7653   21.3955 C   0  0  0  0  0  0  0  0  0  0  0  0
    2.4359    2.6606   20.3419 C   0  0  0  0  0  0  0  0  0  0  0  0
    3.1220    2.5300   19.1226 C   0  0  0  0  0  0  0  0  0  0  0  0
    4.0716    1.5018   18.9566 C   0  0  0  0  0  0  0  0  0  0  0  0
    4.7599    1.3542   17.7382 C   0  0  0  0  0  0  0  0  0  0  0  0
    5.6653    0.3822   17.5142 N   0  0  0  0  0  0  0  0  0  0  0  0
    5.9200   -0.4869   18.5101 C   0  0  0  0  0  0  0  0  0  0  0  0
    6.4081   -0.9619   21.8941 N   0  0  0  0  0  0  0  0  0  0  0  0
    6.8968   -1.8601   22.9372 C   0  0  0  0  0  0  0  0  0  0  0  0
    8.4213   -1.9815   22.7839 C   0  0  0  0  0  0  0  0  0  0  0  0
    6.9378    0.4029   22.0230 C   0  0  0  0  0  0  0  0  0  0  0  0
    8.4664    0.4216   22.1504 C   0  0  0  0  0  0  0  0  0  0  0  0
    9.0618    1.4380   21.7847 O   0  0  0  0  0  0  0  0  0  0  0  0
    9.1040   -0.6847   22.6177 N   0  0  0  0  0  0  0  0  0  0  0  0
   10.5052   -0.6491   22.8387 C   0  0  0  0  0  0  0  0  0  0  0  0
   11.3362   -1.5611   22.1611 C   0  0  0  0  0  0  0  0  0  0  0  0
   12.7314   -1.4639   22.2735 C   0  0  0  0  0  0  0  0  0  0  0  0
   13.7401   -2.4882   21.3275 Cl  0  0  0  0  0  0  0  0  0  0  0  0
   11.0789    0.3122   23.7028 C   0  0  0  0  0  0  0  0  0  0  0  0
   12.4746    0.3765   23.8512 C   0  0  0  0  0  0  0  0  0  0  0  0
   13.2974   -0.5039   23.1282 C   0  0  0  0  0  0  0  0  0  0  0  0
    3.8116    0.0616   22.0582 H   0  0  0  0  0  0  0  0  0  0  0  0
    2.1663    1.8652   22.3308 H   0  0  0  0  0  0  0  0  0  0  0  0
    1.7099    3.4516   20.4697 H   0  0  0  0  0  0  0  0  0  0  0  0
    2.9178    3.2204   18.3166 H   0  0  0  0  0  0  0  0  0  0  0  0
    4.5788    2.0273   16.9142 H   0  0  0  0  0  0  0  0  0  0  0  0
    6.6566   -1.2449   18.2907 H   0  0  0  0  0  0  0  0  0  0  0  0
    6.4304   -2.8461   22.9140 H   0  0  0  0  0  0  0  0  0  0  0  0
    6.6516   -1.4351   23.9117 H   0  0  0  0  0  0  0  0  0  0  0  0
    8.6366   -2.5958   21.9090 H   0  0  0  0  0  0  0  0  0  0  0  0
    8.8355   -2.5094   23.6443 H   0  0  0  0  0  0  0  0  0  0  0  0
    6.5152    0.8536   22.9218 H   0  0  0  0  0  0  0  0  0  0  0  0
    6.6772    1.0750   21.2075 H   0  0  0  0  0  0  0  0  0  0  0  0
   10.9040   -2.3047   21.5153 H   0  0  0  0  0  0  0  0  0  0  0  0
   10.4542    1.0113   24.2382 H   0  0  0  0  0  0  0  0  0  0  0  0
   12.9106    1.1187   24.4989 H   0  0  0  0  0  0  0  0  0  0  0  0
   14.3640   -0.4349   23.2169 H   0  0  0  0  0  0  0  0  0  0  0  0
  1  2  2  0  0  0  0
  2  3  1  0  0  0  0
  2 13  1  0  0  0  0
  3  4  2  0  0  0  0
  3 12  1  0  0  0  0
  4  5  1  0  0  0  0
  4  9  1  0  0  0  0
  5  6  2  0  0  0  0
  5 27  1  0  0  0  0
  6  7  1  0  0  0  0
  6 28  1  0  0  0  0
  7  8  2  0  0  0  0
  7 29  1  0  0  0  0
  8  9  1  0  0  0  0
  8 30  1  0  0  0  0
  9 10  2  0  0  0  0
 10 11  1  0  0  0  0
 10 31  1  0  0  0  0
 11 12  2  0  0  0  0
 12 32  1  0  0  0  0
 13 14  1  0  0  0  0
 13 16  1  0  0  0  0
 14 15  1  0  0  0  0
 14 33  1  0  0  0  0
 14 34  1  0  0  0  0
 15 19  1  0  0  0  0
 15 35  1  0  0  0  0
 15 36  1  0  0  0  0
 16 17  1  0  0  0  0
 16 37  1  0  0  0  0
 16 38  1  0  0  0  0
 17 18  2  0  0  0  0
 17 19  1  0  0  0  0
 19 20  1  0  0  0  0
 20 21  2  0  0  0  0
 20 24  1  0  0  0  0
 21 22  1  0  0  0  0
 21 39  1  0  0  0  0
 22 23  1  0  0  0  0
 22 26  2  0  0  0  0
 24 25  2  0  0  0  0
 24 40  1  0  0  0  0
 25 26  1  0  0  0  0
 25 41  1  0  0  0  0
 26 42  1  0  0  0  0
M  END
$$$$
