Mpro-x12692_ligand
 OpenBabel04052409413D

 40 43  0  0  1  0  0  0  0  0999 V2000
    8.9253    0.8160   21.0672 O   0  0  0  0  0  0  0  0  0  0  0  0
    8.4104   -0.2465   21.4262 C   0  0  0  0  0  0  0  0  0  0  0  0
    8.9612   -1.0329   22.6322 C   0  0  2  0  0  0  0  0  0  0  0  0
    8.1769   -0.6913   23.9105 C   0  0  0  0  0  0  0  0  0  0  0  0
    8.4876    0.7348   24.3856 C   0  0  0  0  0  0  0  0  0  0  0  0
    9.9147    0.9396   24.5871 N   0  0  0  0  0  0  0  0  0  0  0  0
   10.4339   -0.7013   22.8271 C   0  0  0  0  0  0  0  0  0  0  0  0
   10.8336    0.3143   23.7314 C   0  0  0  0  0  0  0  0  0  0  0  0
   12.1871    0.7047   23.7839 C   0  0  0  0  0  0  0  0  0  0  0  0
   13.1397    0.0777   22.9574 C   0  0  0  0  0  0  0  0  0  0  0  0
   11.4013   -1.3758   22.0604 C   0  0  0  0  0  0  0  0  0  0  0  0
   12.7475   -0.9803   22.1156 C   0  0  0  0  0  0  0  0  0  0  0  0
   13.8909   -1.7662   21.0990 Cl  0  0  0  0  0  0  0  0  0  0  0  0
    7.3454   -0.7771   20.8090 N   0  0  0  0  0  0  0  0  0  0  0  0
    6.5958   -0.0810   19.8352 C   0  0  0  0  0  0  0  0  0  0  0  0
    5.4455    0.6675   20.1763 C   0  0  0  0  0  0  0  0  0  0  0  0
    4.9662    0.7515   21.5010 C   0  0  0  0  0  0  0  0  0  0  0  0
    3.8363    1.5364   21.7929 C   0  0  0  0  0  0  0  0  0  0  0  0
    3.1741    2.2390   20.7680 C   0  0  0  0  0  0  0  0  0  0  0  0
    3.6418    2.1624   19.4442 C   0  0  0  0  0  0  0  0  0  0  0  0
    4.7711    1.3744   19.1512 C   0  0  0  0  0  0  0  0  0  0  0  0
    5.2626    1.2816   17.8392 C   0  0  0  0  0  0  0  0  0  0  0  0
    6.3516    0.5603   17.5180 N   0  0  0  0  0  0  0  0  0  0  0  0
    7.0024   -0.1048   18.4885 C   0  0  0  0  0  0  0  0  0  0  0  0
    8.8688   -2.1003   22.4261 H   0  0  0  0  0  0  0  0  0  0  0  0
    8.4600   -1.3899   24.6978 H   0  0  0  0  0  0  0  0  0  0  0  0
    7.1041   -0.8181   23.7615 H   0  0  0  0  0  0  0  0  0  0  0  0
    7.9746    0.9319   25.3268 H   0  0  0  0  0  0  0  0  0  0  0  0
    8.1224    1.4730   23.6707 H   0  0  0  0  0  0  0  0  0  0  0  0
   10.2062    1.7722   25.0882 H   0  0  0  0  0  0  0  0  0  0  0  0
   12.4987    1.4954   24.4489 H   0  0  0  0  0  0  0  0  0  0  0  0
   14.1695    0.3974   22.9811 H   0  0  0  0  0  0  0  0  0  0  0  0
   11.1021   -2.1712   21.3960 H   0  0  0  0  0  0  0  0  0  0  0  0
    6.9420   -1.6219   21.1959 H   0  0  0  0  0  0  0  0  0  0  0  0
    5.4630    0.2295   22.3045 H   0  0  0  0  0  0  0  0  0  0  0  0
    3.4839    1.6057   22.8099 H   0  0  0  0  0  0  0  0  0  0  0  0
    2.3129    2.8463   21.0034 H   0  0  0  0  0  0  0  0  0  0  0  0
    3.1412    2.7142   18.6608 H   0  0  0  0  0  0  0  0  0  0  0  0
    4.7956    1.8197   17.0289 H   0  0  0  0  0  0  0  0  0  0  0  0
    7.8770   -0.6571   18.1792 H   0  0  0  0  0  0  0  0  0  0  0  0
  1  2  2  0  0  0  0
  2  3  1  0  0  0  0
  2 14  1  0  0  0  0
  3  4  1  0  0  0  0
  3  7  1  0  0  0  0
  3 25  1  6  0  0  0
  4  5  1  0  0  0  0
  4 26  1  0  0  0  0
  4 27  1  0  0  0  0
  5  6  1  0  0  0  0
  5 28  1  0  0  0  0
  5 29  1  0  0  0  0
  6  8  1  0  0  0  0
  6 30  1  0  0  0  0
  7  8  2  0  0  0  0
  7 11  1  0  0  0  0
  8  9  1  0  0  0  0
  9 10  2  0  0  0  0
  9 31  1  0  0  0  0
 10 12  1  0  0  0  0
 10 32  1  0  0  0  0
 11 12  2  0  0  0  0
 11 33  1  0  0  0  0
 12 13  1  0  0  0  0
 14 15  1  0  0  0  0
 14 34  1  0  0  0  0
 15 16  2  0  0  0  0
 15 24  1  0  0  0  0
 16 17  1  0  0  0  0
 16 21  1  0  0  0  0
 17 18  2  0  0  0  0
 17 35  1  0  0  0  0
 18 19  1  0  0  0  0
 18 36  1  0  0  0  0
 19 20  2  0  0  0  0
 19 37  1  0  0  0  0
 20 21  1  0  0  0  0
 20 38  1  0  0  0  0
 21 22  2  0  0  0  0
 22 23  1  0  0  0  0
 22 39  1  0  0  0  0
 23 24  2  0  0  0  0
 24 40  1  0  0  0  0
M  END
$$$$
