Mpro-x12587_ligand
 OpenBabel04052409413D

 41 44  0  0  1  0  0  0  0  0999 V2000
    9.0377    0.9822   21.1338 O   0  0  0  0  0  0  0  0  0  0  0  0
    8.5772   -0.0187   21.6929 C   0  0  0  0  0  0  0  0  0  0  0  0
    9.2923   -0.5678   22.9458 C   0  0  2  0  0  0  0  0  0  0  0  0
   10.7908   -0.3256   22.8569 C   0  0  0  0  0  0  0  0  0  0  0  0
   11.3682    0.7449   23.5701 C   0  0  0  0  0  0  0  0  0  0  0  0
   12.7451    0.9995   23.4566 C   0  0  0  0  0  0  0  0  0  0  0  0
   13.5543    0.1858   22.6441 C   0  0  0  0  0  0  0  0  0  0  0  0
   11.6027   -1.1335   22.0342 C   0  0  0  0  0  0  0  0  0  0  0  0
   12.9793   -0.8747   21.9214 C   0  0  0  0  0  0  0  0  0  0  0  0
   13.9451   -1.8523   20.8849 Cl  0  0  0  0  0  0  0  0  0  0  0  0
    7.4330   -0.6133   21.2751 N   0  0  0  0  0  0  0  0  0  0  0  0
    6.9174   -1.8792   21.8162 C   0  0  0  0  0  0  0  0  0  0  0  0
    7.4225   -2.2142   23.2241 C   0  0  0  0  0  0  0  0  0  0  0  0
    8.9354   -2.0272   23.2760 C   0  0  0  0  0  0  0  0  0  0  0  0
    6.7101   -0.0451   20.1960 C   0  0  0  0  0  0  0  0  0  0  0  0
    5.5623    0.7606   20.3940 C   0  0  0  0  0  0  0  0  0  0  0  0
    5.0460    1.0431   21.6767 C   0  0  0  0  0  0  0  0  0  0  0  0
    3.9139    1.8697   21.8157 C   0  0  0  0  0  0  0  0  0  0  0  0
    3.2953    2.4229   20.6802 C   0  0  0  0  0  0  0  0  0  0  0  0
    3.7998    2.1463   19.3968 C   0  0  0  0  0  0  0  0  0  0  0  0
    4.9240    1.3111   19.2558 C   0  0  0  0  0  0  0  0  0  0  0  0
    5.4427    1.0127   17.9834 C   0  0  0  0  0  0  0  0  0  0  0  0
    6.5357    0.2491   17.8020 N   0  0  0  0  0  0  0  0  0  0  0  0
    7.1605   -0.2557   18.8795 C   0  0  0  0  0  0  0  0  0  0  0  0
    8.9209    0.0365   23.7724 H   0  0  0  0  0  0  0  0  0  0  0  0
   10.7580    1.3864   24.1887 H   0  0  0  0  0  0  0  0  0  0  0  0
   13.1758    1.8340   23.9766 H   0  0  0  0  0  0  0  0  0  0  0  0
   14.6077    0.4003   22.5590 H   0  0  0  0  0  0  0  0  0  0  0  0
   11.1732   -1.9507   21.4762 H   0  0  0  0  0  0  0  0  0  0  0  0
    7.2128   -2.6756   21.1369 H   0  0  0  0  0  0  0  0  0  0  0  0
    5.8297   -1.8683   21.8081 H   0  0  0  0  0  0  0  0  0  0  0  0
    7.1542   -3.2377   23.4880 H   0  0  0  0  0  0  0  0  0  0  0  0
    6.9415   -1.5658   23.9577 H   0  0  0  0  0  0  0  0  0  0  0  0
    9.3170   -2.2845   24.2636 H   0  0  0  0  0  0  0  0  0  0  0  0
    9.3997   -2.7215   22.5754 H   0  0  0  0  0  0  0  0  0  0  0  0
    5.5120    0.6384   22.5617 H   0  0  0  0  0  0  0  0  0  0  0  0
    3.5268    2.0890   22.7983 H   0  0  0  0  0  0  0  0  0  0  0  0
    2.4359    3.0665   20.7952 H   0  0  0  0  0  0  0  0  0  0  0  0
    3.3297    2.5843   18.5279 H   0  0  0  0  0  0  0  0  0  0  0  0
    4.9874    1.4157   17.0904 H   0  0  0  0  0  0  0  0  0  0  0  0
    8.0521   -0.8307   18.6826 H   0  0  0  0  0  0  0  0  0  0  0  0
  1  2  2  0  0  0  0
  2  3  1  0  0  0  0
  2 11  1  0  0  0  0
  3  4  1  0  0  0  0
  3 14  1  0  0  0  0
  3 25  1  1  0  0  0
  4  5  2  0  0  0  0
  4  8  1  0  0  0  0
  5  6  1  0  0  0  0
  5 26  1  0  0  0  0
  6  7  2  0  0  0  0
  6 27  1  0  0  0  0
  7  9  1  0  0  0  0
  7 28  1  0  0  0  0
  8  9  2  0  0  0  0
  8 29  1  0  0  0  0
  9 10  1  0  0  0  0
 11 12  1  0  0  0  0
 11 15  1  0  0  0  0
 12 13  1  0  0  0  0
 12 30  1  0  0  0  0
 12 31  1  0  0  0  0
 13 14  1  0  0  0  0
 13 32  1  0  0  0  0
 13 33  1  0  0  0  0
 14 34  1  0  0  0  0
 14 35  1  0  0  0  0
 15 16  2  0  0  0  0
 15 24  1  0  0  0  0
 16 17  1  0  0  0  0
 16 21  1  0  0  0  0
 17 18  2  0  0  0  0
 17 36  1  0  0  0  0
 18 19  1  0  0  0  0
 18 37  1  0  0  0  0
 19 20  2  0  0  0  0
 19 38  1  0  0  0  0
 20 21  1  0  0  0  0
 20 39  1  0  0  0  0
 21 22  2  0  0  0  0
 22 23  1  0  0  0  0
 22 40  1  0  0  0  0
 23 24  2  0  0  0  0
 24 41  1  0  0  0  0
M  END
$$$$
