Mpro-x2563_ligand
 OpenBabel04052409413D

 35 37  0  0  0  0  0  0  0  0999 V2000
    8.7144    1.0128   20.9939 O   0  0  0  0  0  0  0  0  0  0  0  0
    8.4893   -0.1716   21.2591 C   0  0  0  0  0  0  0  0  0  0  0  0
    9.1309   -0.8569   22.2135 N   0  0  0  0  0  0  0  0  0  0  0  0
    9.9506   -0.2151   23.1475 C   0  0  0  0  0  0  0  0  0  0  0  0
    9.3639    0.3044   24.3163 C   0  0  0  0  0  0  0  0  0  0  0  0
   10.1282    1.1135   25.1704 C   0  0  0  0  0  0  0  0  0  0  0  0
   11.4721    1.3719   24.8524 C   0  0  0  0  0  0  0  0  0  0  0  0
   12.0835    0.7784   23.7360 C   0  0  0  0  0  0  0  0  0  0  0  0
   11.3183   -0.0256   22.8755 C   0  0  0  0  0  0  0  0  0  0  0  0
    7.4623   -0.9723   20.4743 C   0  0  0  0  0  0  0  0  0  0  0  0
    6.5771   -0.1056   19.6008 C   0  0  0  0  0  0  0  0  0  0  0  0
    5.4892    0.6455   20.1127 C   0  0  0  0  0  3  0  0  0  0  0  0
    5.1451    0.6360   21.4831 C   0  0  0  0  0  0  0  0  0  0  0  0
    4.0639    1.4084   21.9453 C   0  0  0  0  0  0  0  0  0  0  0  0
    3.3149    2.1905   21.0471 C   0  0  0  0  0  0  0  0  0  0  0  0
    3.6500    2.2115   19.6809 C   0  0  0  0  0  0  0  0  0  0  0  0
    4.7314    1.4407   19.2131 C   0  0  0  0  0  0  0  0  0  0  0  0
    5.0733    1.4555   17.8477 C   0  0  0  0  0  0  0  0  0  0  0  0
    6.1068    0.7139   17.4066 N   0  0  0  0  0  0  0  0  0  0  0  0
    6.8575   -0.0497   18.2243 C   0  0  0  0  0  0  0  0  0  0  0  0
    8.8547   -1.8119   22.4022 H   0  0  0  0  0  0  0  0  0  0  0  0
    8.3188    0.1336   24.5254 H   0  0  0  0  0  0  0  0  0  0  0  0
    9.6773    1.5645   26.0425 H   0  0  0  0  0  0  0  0  0  0  0  0
   12.0358    2.0453   25.4575 H   0  0  0  0  0  0  0  0  0  0  0  0
   13.1270    0.9627   23.5341 H   0  0  0  0  0  0  0  0  0  0  0  0
   11.7685   -0.4678   22.0021 H   0  0  0  0  0  0  0  0  0  0  0  0
    6.8574   -1.6023   21.1250 H   0  0  0  0  0  0  0  0  0  0  0  0
    8.0477   -1.6249   19.8468 H   0  0  0  0  0  0  0  0  0  0  0  0
    5.6992    0.0489   22.1987 H   0  0  0  0  0  0  0  0  0  0  0  0
    3.8041    1.3989   22.9940 H   0  0  0  0  0  0  0  0  0  0  0  0
    2.4868    2.7822   21.4094 H   0  0  0  0  0  0  0  0  0  0  0  0
    3.0806    2.8249   18.9956 H   0  0  0  0  0  0  0  0  0  0  0  0
    4.5727    2.0509   17.1026 H   0  0  0  0  0  0  0  0  0  0  0  0
    6.3465    0.7336   16.4133 H   0  0  0  0  0  0  0  0  0  0  0  0
    7.6704   -0.5918   17.7666 H   0  0  0  0  0  0  0  0  0  0  0  0
  1  2  2  0  0  0  0
  2  3  1  0  0  0  0
  2 10  1  0  0  0  0
  3  4  1  0  0  0  0
  3 21  1  0  0  0  0
  4  5  2  0  0  0  0
  4  9  1  0  0  0  0
  5  6  1  0  0  0  0
  5 22  1  0  0  0  0
  6  7  2  0  0  0  0
  6 23  1  0  0  0  0
  7  8  1  0  0  0  0
  7 24  1  0  0  0  0
  8  9  2  0  0  0  0
  8 25  1  0  0  0  0
  9 26  1  0  0  0  0
 10 11  1  0  0  0  0
 10 27  1  0  0  0  0
 10 28  1  0  0  0  0
 11 12  1  0  0  0  0
 11 20  2  0  0  0  0
 12 13  1  0  0  0  0
 12 17  1  0  0  0  0
 13 14  2  0  0  0  0
 13 29  1  0  0  0  0
 14 15  1  0  0  0  0
 14 30  1  0  0  0  0
 15 16  2  0  0  0  0
 15 31  1  0  0  0  0
 16 17  1  0  0  0  0
 16 32  1  0  0  0  0
 17 18  2  0  0  0  0
 18 19  1  0  0  0  0
 18 33  1  0  0  0  0
 19 20  1  0  0  0  0
 19 34  1  0  0  0  0
 20 35  1  0  0  0  0
M  END
$$$$
