Mpro-x12716_ligand
 OpenBabel04052409413D

 45 48  0  0  1  0  0  0  0  0999 V2000
    9.2988    0.6702   20.9916 O   0  0  0  0  0  0  0  0  0  0  0  0
    8.6297   -0.1304   21.6487 C   0  0  0  0  0  0  0  0  0  0  0  0
    9.2412   -0.8476   22.8891 C   0  0  1  0  0  0  0  0  0  0  0  0
   10.7445   -0.5309   22.8650 C   0  0  0  0  0  0  0  0  0  0  0  0
   11.6057   -1.2321   21.9897 C   0  0  0  0  0  0  0  0  0  0  0  0
   12.9582   -0.8848   21.8766 C   0  0  0  0  0  0  0  0  0  0  0  0
   13.9570   -1.7557   20.7822 Cl  0  0  0  0  0  0  0  0  0  0  0  0
   13.4770    0.1674   22.6465 C   0  0  0  0  0  0  0  0  0  0  0  0
   12.6381    0.8600   23.5365 C   0  0  0  0  0  0  0  0  0  0  0  0
   11.2783    0.5200   23.6603 C   0  0  0  0  0  0  0  0  0  0  0  0
   10.5333    1.2354   24.5700 O   0  0  0  0  0  0  0  0  0  0  0  0
    9.1205    1.1733   24.4448 C   0  0  0  0  0  0  0  0  0  0  0  0
    8.6445   -0.2633   24.1917 C   0  0  0  0  0  0  0  0  0  0  0  0
    9.0251   -2.3963   22.8435 C   0  0  0  0  0  0  0  0  0  0  0  0
    7.6342   -2.8431   23.0628 N   0  3  0  0  0  0  0  0  0  0  0  0
    7.3386   -0.3574   21.3620 N   0  0  0  0  0  0  0  0  0  0  0  0
    6.6530    0.1737   20.2424 C   0  0  0  0  0  0  0  0  0  0  0  0
    5.3978    0.8026   20.4016 C   0  0  0  0  0  0  0  0  0  0  0  0
    4.7767    0.9287   21.6641 C   0  0  0  0  0  0  0  0  0  0  0  0
    3.5352    1.5801   21.7765 C   0  0  0  0  0  0  0  0  0  0  0  0
    2.9177    2.1237   20.6361 C   0  0  0  0  0  0  0  0  0  0  0  0
    3.5383    2.0188   19.3774 C   0  0  0  0  0  0  0  0  0  0  0  0
    4.7640    1.3383   19.2561 C   0  0  0  0  0  0  0  0  0  0  0  0
    5.3898    1.1822   18.0042 C   0  0  0  0  0  0  0  0  0  0  0  0
    6.5675    0.5486   17.8427 N   0  0  0  0  0  0  0  0  0  0  0  0
    7.1892    0.0707   18.9391 C   0  0  0  0  0  0  0  0  0  0  0  0
   11.2394   -2.0318   21.3692 H   0  0  0  0  0  0  0  0  0  0  0  0
   14.5109    0.4535   22.5478 H   0  0  0  0  0  0  0  0  0  0  0  0
   13.0334    1.6763   24.1146 H   0  0  0  0  0  0  0  0  0  0  0  0
    8.7965    1.8497   23.6529 H   0  0  0  0  0  0  0  0  0  0  0  0
    8.6841    1.5501   25.3702 H   0  0  0  0  0  0  0  0  0  0  0  0
    8.9529   -0.8737   25.0417 H   0  0  0  0  0  0  0  0  0  0  0  0
    7.5544   -0.2924   24.1783 H   0  0  0  0  0  0  0  0  0  0  0  0
    9.6460   -2.8778   23.6007 H   0  0  0  0  0  0  0  0  0  0  0  0
    9.3265   -2.8095   21.8817 H   0  0  0  0  0  0  0  0  0  0  0  0
    7.6063   -3.8525   23.0634 H   0  0  0  0  0  0  0  0  0  0  0  0
    7.3117   -2.5099   23.9618 H   0  0  0  0  0  0  0  0  0  0  0  0
    7.0329   -2.5028   22.3272 H   0  0  0  0  0  0  0  0  0  0  0  0
    6.7697   -0.8052   22.0631 H   0  0  0  0  0  0  0  0  0  0  0  0
    5.2350    0.5350   22.5581 H   0  0  0  0  0  0  0  0  0  0  0  0
    3.0602    1.6713   22.7425 H   0  0  0  0  0  0  0  0  0  0  0  0
    1.9718    2.6342   20.7330 H   0  0  0  0  0  0  0  0  0  0  0  0
    3.0702    2.4622   18.5103 H   0  0  0  0  0  0  0  0  0  0  0  0
    4.9502    1.5876   17.1076 H   0  0  0  0  0  0  0  0  0  0  0  0
    8.1380   -0.4152   18.7639 H   0  0  0  0  0  0  0  0  0  0  0  0
  1  2  2  0  0  0  0
  2 16  1  0  0  0  0
  3  2  1  6  0  0  0
  3  4  1  0  0  0  0
  3 13  1  0  0  0  0
  3 14  1  0  0  0  0
  4  5  2  0  0  0  0
  4 10  1  0  0  0  0
  5  6  1  0  0  0  0
  5 27  1  0  0  0  0
  6  7  1  0  0  0  0
  6  8  2  0  0  0  0
  8  9  1  0  0  0  0
  8 28  1  0  0  0  0
  9 10  2  0  0  0  0
  9 29  1  0  0  0  0
 10 11  1  0  0  0  0
 11 12  1  0  0  0  0
 12 13  1  0  0  0  0
 12 30  1  0  0  0  0
 12 31  1  0  0  0  0
 13 32  1  0  0  0  0
 13 33  1  0  0  0  0
 14 15  1  0  0  0  0
 14 34  1  0  0  0  0
 14 35  1  0  0  0  0
 15 36  1  0  0  0  0
 15 37  1  0  0  0  0
 15 38  1  0  0  0  0
 16 17  1  0  0  0  0
 16 39  1  0  0  0  0
 17 18  2  0  0  0  0
 17 26  1  0  0  0  0
 18 19  1  0  0  0  0
 18 23  1  0  0  0  0
 19 20  2  0  0  0  0
 19 40  1  0  0  0  0
 20 21  1  0  0  0  0
 20 41  1  0  0  0  0
 21 22  2  0  0  0  0
 21 42  1  0  0  0  0
 22 23  1  0  0  0  0
 22 43  1  0  0  0  0
 23 24  2  0  0  0  0
 24 25  1  0  0  0  0
 24 44  1  0  0  0  0
 25 26  2  0  0  0  0
 26 45  1  0  0  0  0
M  CHG  1  15   1
M  END
$$$$
