Mpro-x11743_ligand
 OpenBabel04052409413D

 37 38  0  0  0  0  0  0  0  0999 V2000
   11.6046    5.2043   24.6708 O   0  0  0  0  0  0  0  0  0  0  0  0
   10.9189    3.9337   24.3830 S   0  0  0  0  0  0  0  0  0  0  0  0
    9.9519    3.4203   25.3632 O   0  0  0  0  0  0  0  0  0  0  0  0
   10.0337    4.2067   22.9445 N   0  0  0  0  0  0  0  0  0  0  0  0
   11.9278    2.8053   23.7906 N   0  0  0  0  0  2  0  0  0  0  0  0
   11.6569    1.5359   23.4394 C   0  0  0  0  0  0  0  0  0  0  0  0
   12.7169    0.6949   23.0291 C   0  0  0  0  0  0  0  0  0  0  0  0
   12.4774   -0.6120   22.5589 C   0  0  0  0  0  0  0  0  0  0  0  0
   13.7718   -1.5845   21.9705 Cl  0  0  0  0  0  0  0  0  0  0  0  0
   11.1676   -1.1113   22.4972 C   0  0  0  0  0  0  0  0  0  0  0  0
   10.3485    0.9988   23.3999 C   0  0  0  0  0  0  0  0  0  0  0  0
   10.0960   -0.2954   22.8989 C   0  0  0  0  0  0  0  0  0  0  0  0
    8.6657   -0.7620   22.6859 C   0  0  0  0  0  0  0  0  0  0  0  0
    8.0294   -0.0292   21.4969 C   0  0  0  0  0  0  0  0  0  0  0  0
    8.6041    0.9160   20.9508 O   0  0  0  0  0  0  0  0  0  0  0  0
    6.8208   -0.4521   21.0992 N   0  0  0  0  0  0  0  0  0  0  0  0
    6.1213    0.1641   20.0365 C   0  0  0  0  0  0  0  0  0  0  0  0
    4.9167    0.8611   20.2687 C   0  0  0  0  0  0  0  0  0  0  0  0
    4.2977    0.9349   21.6514 C   0  0  0  0  0  0  0  0  0  0  0  0
    6.6513    0.1481   18.7273 C   0  0  0  0  0  0  0  0  0  0  0  0
    6.0839    0.7956   17.6892 N   0  0  0  0  0  0  0  0  0  0  0  0
    4.9557    1.4929   17.9286 C   0  0  0  0  0  0  0  0  0  0  0  0
    4.3289    1.5457   19.1873 C   0  0  0  0  0  0  0  0  0  0  0  0
    9.0480    3.9472   23.0301 H   0  0  0  0  0  0  0  0  0  0  0  0
   10.1787    5.1379   22.5582 H   0  0  0  0  0  0  0  0  0  0  0  0
   13.7302    1.0698   23.0314 H   0  0  0  0  0  0  0  0  0  0  0  0
   10.9862   -2.0950   22.0902 H   0  0  0  0  0  0  0  0  0  0  0  0
    9.4993    1.6057   23.6746 H   0  0  0  0  0  0  0  0  0  0  0  0
    8.0808   -0.5797   23.5860 H   0  0  0  0  0  0  0  0  0  0  0  0
    8.6446   -1.8368   22.5008 H   0  0  0  0  0  0  0  0  0  0  0  0
    6.3267   -1.1241   21.6682 H   0  0  0  0  0  0  0  0  0  0  0  0
    3.3105    1.3953   21.6214 H   0  0  0  0  0  0  0  0  0  0  0  0
    4.1927   -0.0601   22.0822 H   0  0  0  0  0  0  0  0  0  0  0  0
    4.9299    1.5288   22.3115 H   0  0  0  0  0  0  0  0  0  0  0  0
    7.5722   -0.3741   18.5116 H   0  0  0  0  0  0  0  0  0  0  0  0
    4.5431    2.0321   17.0908 H   0  0  0  0  0  0  0  0  0  0  0  0
    3.4269    2.1224   19.3195 H   0  0  0  0  0  0  0  0  0  0  0  0
  1  2  2  0  0  0  0
  2  3  2  0  0  0  0
  2  4  1  0  0  0  0
  2  5  1  0  0  0  0
  4 24  1  0  0  0  0
  4 25  1  0  0  0  0
  5  6  1  0  0  0  0
  6  7  2  0  0  0  0
  6 11  1  0  0  0  0
  7  8  1  0  0  0  0
  7 26  1  0  0  0  0
  8  9  1  0  0  0  0
  8 10  2  0  0  0  0
 10 12  1  0  0  0  0
 10 27  1  0  0  0  0
 11 12  2  0  0  0  0
 11 28  1  0  0  0  0
 12 13  1  0  0  0  0
 13 14  1  0  0  0  0
 13 29  1  0  0  0  0
 13 30  1  0  0  0  0
 14 15  2  0  0  0  0
 14 16  1  0  0  0  0
 16 17  1  0  0  0  0
 16 31  1  0  0  0  0
 17 18  2  0  0  0  0
 17 20  1  0  0  0  0
 18 19  1  0  0  0  0
 18 23  1  0  0  0  0
 19 32  1  0  0  0  0
 19 33  1  0  0  0  0
 19 34  1  0  0  0  0
 20 21  2  0  0  0  0
 20 35  1  0  0  0  0
 21 22  1  0  0  0  0
 22 23  2  0  0  0  0
 22 36  1  0  0  0  0
 23 37  1  0  0  0  0
M  END
$$$$
