Mpro-x11508_ligand
 OpenBabel04052409413D

 33 35  0  0  0  0  0  0  0  0999 V2000
    8.7579    0.8653   21.0213 O   0  0  0  0  0  0  0  0  0  0  0  0
    8.2649   -0.2220   21.3299 C   0  0  0  0  0  0  0  0  0  0  0  0
    8.8133   -1.0271   22.5149 C   0  0  0  0  0  0  0  0  0  0  0  0
   10.2618   -0.6746   22.7846 C   0  0  0  0  0  0  0  0  0  0  0  0
   10.5995    0.4245   23.6038 C   0  0  0  0  0  0  0  0  0  0  0  0
   11.9467    0.8096   23.7472 C   0  0  0  0  0  0  0  0  0  0  0  0
   12.9555    0.0992   23.0673 C   0  0  0  0  0  0  0  0  0  0  0  0
   11.2768   -1.4180   22.1578 C   0  0  0  0  0  0  0  0  0  0  0  0
   12.6175   -1.0225   22.2836 C   0  0  0  0  0  0  0  0  0  0  0  0
   13.8237   -1.8952   21.4251 Cl  0  0  0  0  0  0  0  0  0  0  0  0
    7.2213   -0.7550   20.6800 N   0  0  0  0  0  0  0  0  0  0  0  0
    6.4828   -0.0618   19.6981 C   0  0  0  0  0  0  0  0  0  0  0  0
    5.3141    0.6318   20.1014 C   0  0  0  0  0  0  0  0  0  0  0  0
    4.6422    1.3972   19.1225 C   0  0  0  0  0  0  0  0  0  0  0  0
    5.1503    1.3716   17.8152 C   0  0  0  0  0  0  0  0  0  0  0  0
    6.2446    0.6594   17.4840 N   0  0  0  0  0  0  0  0  0  0  0  0
    6.9071   -0.0377   18.4118 N   0  0  0  0  0  0  0  0  0  0  0  0
    4.8138    0.6092   21.4238 C   0  0  0  0  0  0  0  0  0  0  0  0
    3.6655    1.3532   21.7533 C   0  0  0  0  0  0  0  0  0  0  0  0
    3.0179    2.1323   20.7752 C   0  0  0  0  0  0  0  0  0  0  0  0
    3.5069    2.1587   19.4563 C   0  0  0  0  0  0  0  0  0  0  0  0
    8.7266   -2.0963   22.3151 H   0  0  0  0  0  0  0  0  0  0  0  0
    8.2176   -0.8131   23.4010 H   0  0  0  0  0  0  0  0  0  0  0  0
    9.8242    0.9966   24.0923 H   0  0  0  0  0  0  0  0  0  0  0  0
   12.2037    1.6643   24.3549 H   0  0  0  0  0  0  0  0  0  0  0  0
   13.9848    0.4114   23.1505 H   0  0  0  0  0  0  0  0  0  0  0  0
   11.0244   -2.2663   21.5391 H   0  0  0  0  0  0  0  0  0  0  0  0
    6.8411   -1.6316   21.0130 H   0  0  0  0  0  0  0  0  0  0  0  0
    4.6910    1.9433   17.0239 H   0  0  0  0  0  0  0  0  0  0  0  0
    5.2963    0.0297   22.1962 H   0  0  0  0  0  0  0  0  0  0  0  0
    3.2837    1.3291   22.7625 H   0  0  0  0  0  0  0  0  0  0  0  0
    2.1434    2.7096   21.0368 H   0  0  0  0  0  0  0  0  0  0  0  0
    3.0120    2.7617   18.7071 H   0  0  0  0  0  0  0  0  0  0  0  0
  1  2  2  0  0  0  0
  2  3  1  0  0  0  0
  2 11  1  0  0  0  0
  3  4  1  0  0  0  0
  3 22  1  0  0  0  0
  3 23  1  0  0  0  0
  4  5  2  0  0  0  0
  4  8  1  0  0  0  0
  5  6  1  0  0  0  0
  5 24  1  0  0  0  0
  6  7  2  0  0  0  0
  6 25  1  0  0  0  0
  7  9  1  0  0  0  0
  7 26  1  0  0  0  0
  8  9  2  0  0  0  0
  8 27  1  0  0  0  0
  9 10  1  0  0  0  0
 11 12  1  0  0  0  0
 11 28  1  0  0  0  0
 12 13  2  0  0  0  0
 12 17  1  0  0  0  0
 13 14  1  0  0  0  0
 13 18  1  0  0  0  0
 14 15  2  0  0  0  0
 14 21  1  0  0  0  0
 15 16  1  0  0  0  0
 15 29  1  0  0  0  0
 16 17  2  0  0  0  0
 18 19  2  0  0  0  0
 18 30  1  0  0  0  0
 19 20  1  0  0  0  0
 19 31  1  0  0  0  0
 20 21  2  0  0  0  0
 20 32  1  0  0  0  0
 21 33  1  0  0  0  0
M  END
$$$$
