Mpro-x2912_ligand
 OpenBabel04052409413D

 35 36  0  0  1  0  0  0  0  0999 V2000
   14.2185   -2.1144   20.5130 N   0  0  0  0  0  0  0  0  0  0  0  0
   13.5099   -1.6305   21.2827 C   0  0  0  0  0  0  0  0  0  0  0  0
   12.6093   -1.0259   22.2382 C   0  0  0  0  0  0  0  0  0  0  0  0
   13.0669   -0.0948   23.1901 C   0  0  0  0  0  0  0  0  0  0  0  0
   12.1586    0.4771   24.1003 C   0  0  0  0  0  0  0  0  0  0  0  0
   10.7894    0.1561   24.0282 C   0  0  0  0  0  0  0  0  0  0  0  0
   11.2496   -1.3700   22.1904 C   0  0  0  0  0  0  0  0  0  0  0  0
   10.3272   -0.7601   23.0561 C   0  0  0  0  0  0  0  0  0  0  0  0
    8.8468   -1.0523   22.8415 C   0  0  1  0  0  0  0  0  0  0  0  0
    7.9971   -0.9851   24.1239 C   0  0  0  0  0  0  0  0  0  0  0  0
    8.3016   -0.1399   21.7272 C   0  0  0  0  0  0  0  0  0  0  0  0
    8.9237    0.8536   21.3416 O   0  0  0  0  0  0  0  0  0  0  0  0
    7.1363   -0.5206   21.1899 N   0  0  0  0  0  0  0  0  0  0  0  0
    6.4692    0.1673   20.1594 C   0  0  0  0  0  0  0  0  0  0  0  0
    5.2574    0.8484   20.4038 C   0  0  0  0  0  0  0  0  0  0  0  0
    4.6737    0.9451   21.7974 C   0  0  0  0  0  0  0  0  0  0  0  0
    4.6101    1.4740   19.3204 C   0  0  0  0  0  0  0  0  0  0  0  0
    5.2025    1.3952   18.0493 C   0  0  0  0  0  0  0  0  0  0  0  0
    6.3683    0.7615   17.8209 N   0  0  0  0  0  0  0  0  0  0  0  0
    6.9845    0.1520   18.8494 C   0  0  0  0  0  0  0  0  0  0  0  0
   14.1088    0.1799   23.2277 H   0  0  0  0  0  0  0  0  0  0  0  0
   12.5042    1.1874   24.8352 H   0  0  0  0  0  0  0  0  0  0  0  0
   10.1022    0.6429   24.7015 H   0  0  0  0  0  0  0  0  0  0  0  0
   10.8962   -2.0809   21.4601 H   0  0  0  0  0  0  0  0  0  0  0  0
    8.7793   -2.0774   22.4714 H   0  0  0  0  0  0  0  0  0  0  0  0
    6.9677   -1.2902   23.9333 H   0  0  0  0  0  0  0  0  0  0  0  0
    8.3951   -1.6561   24.8859 H   0  0  0  0  0  0  0  0  0  0  0  0
    7.9624    0.0165   24.5469 H   0  0  0  0  0  0  0  0  0  0  0  0
    6.6590   -1.3178   21.5924 H   0  0  0  0  0  0  0  0  0  0  0  0
    3.6624    1.3488   21.7658 H   0  0  0  0  0  0  0  0  0  0  0  0
    4.6340   -0.0365   22.2688 H   0  0  0  0  0  0  0  0  0  0  0  0
    5.2867    1.6024   22.4156 H   0  0  0  0  0  0  0  0  0  0  0  0
    3.6891    2.0191   19.4593 H   0  0  0  0  0  0  0  0  0  0  0  0
    4.7551    1.8848   17.1992 H   0  0  0  0  0  0  0  0  0  0  0  0
    7.9102   -0.3571   18.6215 H   0  0  0  0  0  0  0  0  0  0  0  0
  1  2  3  0  0  0  0
  2  3  1  0  0  0  0
  3  4  2  0  0  0  0
  3  7  1  0  0  0  0
  4  5  1  0  0  0  0
  4 21  1  0  0  0  0
  5  6  2  0  0  0  0
  5 22  1  0  0  0  0
  6  8  1  0  0  0  0
  6 23  1  0  0  0  0
  7  8  2  0  0  0  0
  7 24  1  0  0  0  0
  8  9  1  0  0  0  0
  9 10  1  0  0  0  0
  9 11  1  0  0  0  0
  9 25  1  6  0  0  0
 10 26  1  0  0  0  0
 10 27  1  0  0  0  0
 10 28  1  0  0  0  0
 11 12  2  0  0  0  0
 11 13  1  0  0  0  0
 13 14  1  0  0  0  0
 13 29  1  0  0  0  0
 14 15  2  0  0  0  0
 14 20  1  0  0  0  0
 15 16  1  0  0  0  0
 15 17  1  0  0  0  0
 16 30  1  0  0  0  0
 16 31  1  0  0  0  0
 16 32  1  0  0  0  0
 17 18  2  0  0  0  0
 17 33  1  0  0  0  0
 18 19  1  0  0  0  0
 18 34  1  0  0  0  0
 19 20  2  0  0  0  0
 20 35  1  0  0  0  0
M  END
$$$$
