Mpro-x12659_ligand
 OpenBabel04052409413D

 38 41  0  0  1  0  0  0  0  0999 V2000
    9.1590    0.5609   21.1807 O   0  0  0  0  0  0  0  0  0  0  0  0
    8.5404   -0.3477   21.7429 C   0  0  0  0  0  0  0  0  0  0  0  0
    9.1955   -1.1639   22.8775 C   0  0  2  0  0  0  0  0  0  0  0  0
    8.5768   -0.8888   24.2555 C   0  0  0  0  0  0  0  0  0  0  0  0
    8.9816    0.4987   24.7714 C   0  0  0  0  0  0  0  0  0  0  0  0
   10.3924    0.6977   24.8225 O   0  0  0  0  0  0  0  0  0  0  0  0
   12.5109    0.5334   23.7359 C   0  0  0  0  0  0  0  0  0  0  0  0
   11.1638    0.1403   23.8254 C   0  0  0  0  0  0  0  0  0  0  0  0
   10.6741   -0.8289   22.9163 C   0  0  0  0  0  0  0  0  0  0  0  0
   11.5474   -1.4441   22.0001 C   0  0  0  0  0  0  0  0  0  0  0  0
   13.3724   -0.0481   22.7865 C   0  0  0  0  0  0  0  0  0  0  0  0
   12.8934   -1.0552   21.9303 C   0  0  0  0  0  0  0  0  0  0  0  0
   13.9369   -1.8272   20.8012 Cl  0  0  0  0  0  0  0  0  0  0  0  0
    7.2821   -0.6683   21.4002 N   0  0  0  0  0  0  0  0  0  0  0  0
    6.6061   -0.0750   20.3059 C   0  0  0  0  0  0  0  0  0  0  0  0
    7.1676   -0.1267   19.0135 C   0  0  0  0  0  0  0  0  0  0  0  0
    5.4335    1.1017   18.0939 C   0  0  0  0  0  0  0  0  0  0  0  0
    4.7989    1.2253   19.3382 C   0  0  0  0  0  0  0  0  0  0  0  0
    6.5937    0.4375   17.9376 N   0  0  0  0  0  0  0  0  0  0  0  0
    3.6141    1.9659   19.4983 C   0  0  0  0  0  0  0  0  0  0  0  0
    3.5215    1.4657   21.7519 C   0  0  0  0  0  0  0  0  0  0  0  0
    4.7158    0.7218   21.7017 C   0  0  0  0  0  0  0  0  0  0  0  0
    2.9738    2.0759   20.6796 N   0  0  0  0  0  0  0  0  0  0  0  0
    5.3774    0.6064   20.4659 C   0  0  0  0  0  0  0  0  0  0  0  0
    9.0793   -2.2228   22.6412 H   0  0  0  0  0  0  0  0  0  0  0  0
    8.9277   -1.6424   24.9621 H   0  0  0  0  0  0  0  0  0  0  0  0
    7.4903   -0.9827   24.2238 H   0  0  0  0  0  0  0  0  0  0  0  0
    8.5803    0.6513   25.7735 H   0  0  0  0  0  0  0  0  0  0  0  0
    8.5399    1.2707   24.1491 H   0  0  0  0  0  0  0  0  0  0  0  0
   12.8774    1.2925   24.4027 H   0  0  0  0  0  0  0  0  0  0  0  0
   11.1732   -2.2104   21.3424 H   0  0  0  0  0  0  0  0  0  0  0  0
   14.4001    0.2694   22.7274 H   0  0  0  0  0  0  0  0  0  0  0  0
    6.7538   -1.2807   22.0047 H   0  0  0  0  0  0  0  0  0  0  0  0
    8.1098   -0.6247   18.8335 H   0  0  0  0  0  0  0  0  0  0  0  0
    5.0282    1.5695   17.2094 H   0  0  0  0  0  0  0  0  0  0  0  0
    3.1644    2.4768   18.6607 H   0  0  0  0  0  0  0  0  0  0  0  0
    2.9836    1.5659   22.6813 H   0  0  0  0  0  0  0  0  0  0  0  0
    5.1079    0.2663   22.5987 H   0  0  0  0  0  0  0  0  0  0  0  0
  1  2  2  0  0  0  0
  2  3  1  0  0  0  0
  2 14  1  0  0  0  0
  3  4  1  0  0  0  0
  3  9  1  0  0  0  0
  3 25  1  6  0  0  0
  4  5  1  0  0  0  0
  4 26  1  0  0  0  0
  4 27  1  0  0  0  0
  5  6  1  0  0  0  0
  5 28  1  0  0  0  0
  5 29  1  0  0  0  0
  6  8  1  0  0  0  0
  7  8  2  0  0  0  0
  7 11  1  0  0  0  0
  7 30  1  0  0  0  0
  8  9  1  0  0  0  0
  9 10  2  0  0  0  0
 10 12  1  0  0  0  0
 10 31  1  0  0  0  0
 11 12  2  0  0  0  0
 11 32  1  0  0  0  0
 12 13  1  0  0  0  0
 14 15  1  0  0  0  0
 14 33  1  0  0  0  0
 15 16  2  0  0  0  0
 15 24  1  0  0  0  0
 16 19  1  0  0  0  0
 16 34  1  0  0  0  0
 17 18  1  0  0  0  0
 17 19  2  0  0  0  0
 17 35  1  0  0  0  0
 18 20  2  0  0  0  0
 18 24  1  0  0  0  0
 20 23  1  0  0  0  0
 20 36  1  0  0  0  0
 21 22  1  0  0  0  0
 21 23  2  0  0  0  0
 21 37  1  0  0  0  0
 22 24  2  0  0  0  0
 22 38  1  0  0  0  0
M  END
$$$$
