Mpro-x11798_ligand
 OpenBabel04052409413D

 50 53  0  0  0  0  0  0  0  0999 V2000
    9.3640    1.0025   21.2495 O   0  0  0  0  0  0  0  0  0  0  0  0
    9.0079   -0.0243   21.8328 C   0  0  0  0  0  0  0  0  0  0  0  0
    8.0109   -0.9716   21.1399 C   0  0  0  0  0  0  0  0  0  0  0  0
    7.2628   -0.3145   20.0866 N   0  0  0  0  0  0  0  0  0  0  0  0
    6.0971    0.4155   20.1909 C   0  0  0  0  0  0  0  0  0  0  0  0
    5.2217    0.7846   21.2244 C   0  0  0  0  0  0  0  0  0  0  0  0
    4.1137    1.5962   20.9125 C   0  0  0  0  0  0  0  0  0  0  0  0
    3.9020    2.0213   19.5840 C   0  0  0  0  0  0  0  0  0  0  0  0
    4.7861    1.6287   18.5588 C   0  0  0  0  0  0  0  0  0  0  0  0
    5.8956    0.8131   18.8538 C   0  0  0  0  0  0  0  0  0  0  0  0
    6.8996    0.3095   18.0537 N   0  0  0  0  0  0  0  0  0  0  0  0
    7.7175   -0.3607   18.8048 N   0  0  0  0  0  0  0  0  0  0  0  0
    9.4654   -0.3535   23.0643 N   0  0  0  0  0  0  0  0  0  0  0  0
   10.5449    0.3973   23.7241 C   0  0  0  0  0  0  0  0  0  0  0  0
   11.8011   -0.4161   23.8191 C   0  0  0  0  0  0  0  0  0  0  0  0
   12.4917   -0.8811   22.7289 C   0  0  0  0  0  0  0  0  0  0  0  0
   13.7869   -1.9423   23.1924 S   0  0  0  0  0  0  0  0  0  0  0  0
   13.4544   -1.6820   24.8788 C   0  0  0  0  0  0  0  0  0  0  0  0
   12.3660   -0.8708   25.0495 C   0  0  0  0  0  0  0  0  0  0  0  0
    8.9439   -1.4614   23.7772 C   0  0  0  0  0  0  0  0  0  0  0  0
    9.6278   -2.6935   23.7777 C   0  0  0  0  0  0  0  0  0  0  0  0
    9.1631   -3.7472   24.5797 C   0  0  0  0  0  0  0  0  0  0  0  0
    7.7613   -1.3122   24.5305 C   0  0  0  0  0  0  0  0  0  0  0  0
    7.2762   -2.3816   25.3037 C   0  0  0  0  0  0  0  0  0  0  0  0
    7.9910   -3.6021   25.3507 C   0  0  0  0  0  0  0  0  0  0  0  0
    7.6520   -4.6834   26.2025 N   0  0  0  0  0  0  0  0  0  0  0  0
    6.6009   -4.8353   27.0206 C   0  0  0  0  0  0  0  0  0  0  0  0
    5.5330   -4.2313   26.9274 O   0  0  0  0  0  0  0  0  0  0  0  0
    6.8457   -5.7736   27.9454 N   0  0  0  0  0  0  0  0  0  0  0  0
    5.9077   -6.1674   28.9843 C   0  0  0  0  0  0  0  0  0  0  0  0
    7.2804   -1.3857   21.8338 H   0  0  0  0  0  0  0  0  0  0  0  0
    8.5728   -1.8085   20.7296 H   0  0  0  0  0  0  0  0  0  0  0  0
    5.3974    0.4522   22.2359 H   0  0  0  0  0  0  0  0  0  0  0  0
    3.4305    1.9001   21.6913 H   0  0  0  0  0  0  0  0  0  0  0  0
    3.0588    2.6520   19.3449 H   0  0  0  0  0  0  0  0  0  0  0  0
    4.6302    1.9633   17.5462 H   0  0  0  0  0  0  0  0  0  0  0  0
   10.2028    0.6795   24.7210 H   0  0  0  0  0  0  0  0  0  0  0  0
   10.7608    1.3393   23.2248 H   0  0  0  0  0  0  0  0  0  0  0  0
   12.2836   -0.7097   21.6820 H   0  0  0  0  0  0  0  0  0  0  0  0
   14.0607   -2.1622   25.6328 H   0  0  0  0  0  0  0  0  0  0  0  0
   11.9405   -0.6135   26.0057 H   0  0  0  0  0  0  0  0  0  0  0  0
   10.5319   -2.8247   23.2009 H   0  0  0  0  0  0  0  0  0  0  0  0
    9.7332   -4.6630   24.6137 H   0  0  0  0  0  0  0  0  0  0  0  0
    7.2347   -0.3700   24.5341 H   0  0  0  0  0  0  0  0  0  0  0  0
    6.3870   -2.2181   25.8921 H   0  0  0  0  0  0  0  0  0  0  0  0
    8.3830   -5.3780   26.3031 H   0  0  0  0  0  0  0  0  0  0  0  0
    7.7416   -6.2400   27.9331 H   0  0  0  0  0  0  0  0  0  0  0  0
    6.3799   -6.8783   29.6621 H   0  0  0  0  0  0  0  0  0  0  0  0
    5.5868   -5.3039   29.5683 H   0  0  0  0  0  0  0  0  0  0  0  0
    5.0283   -6.6427   28.5478 H   0  0  0  0  0  0  0  0  0  0  0  0
  1  2  2  0  0  0  0
  2  3  1  0  0  0  0
  2 13  1  0  0  0  0
  3  4  1  0  0  0  0
  3 31  1  0  0  0  0
  3 32  1  0  0  0  0
  4  5  1  0  0  0  0
  4 12  1  0  0  0  0
  5  6  2  0  0  0  0
  5 10  1  0  0  0  0
  6  7  1  0  0  0  0
  6 33  1  0  0  0  0
  7  8  2  0  0  0  0
  7 34  1  0  0  0  0
  8  9  1  0  0  0  0
  8 35  1  0  0  0  0
  9 10  2  0  0  0  0
  9 36  1  0  0  0  0
 10 11  1  0  0  0  0
 11 12  2  0  0  0  0
 13 14  1  0  0  0  0
 13 20  1  0  0  0  0
 14 15  1  0  0  0  0
 14 37  1  0  0  0  0
 14 38  1  0  0  0  0
 15 16  2  0  0  0  0
 15 19  1  0  0  0  0
 16 17  1  0  0  0  0
 16 39  1  0  0  0  0
 17 18  1  0  0  0  0
 18 19  2  0  0  0  0
 18 40  1  0  0  0  0
 19 41  1  0  0  0  0
 20 21  2  0  0  0  0
 20 23  1  0  0  0  0
 21 22  1  0  0  0  0
 21 42  1  0  0  0  0
 22 25  2  0  0  0  0
 22 43  1  0  0  0  0
 23 24  2  0  0  0  0
 23 44  1  0  0  0  0
 24 25  1  0  0  0  0
 24 45  1  0  0  0  0
 25 26  1  0  0  0  0
 26 27  1  0  0  0  0
 26 46  1  0  0  0  0
 27 28  2  0  0  0  0
 27 29  1  0  0  0  0
 29 30  1  0  0  0  0
 29 47  1  0  0  0  0
 30 48  1  0  0  0  0
 30 49  1  0  0  0  0
 30 50  1  0  0  0  0
M  END
$$$$
