Mpro-x10322_ligand
 OpenBabel04052409413D

 39 41  0  0  1  0  0  0  0  0999 V2000
    9.1378   -0.6363   21.9878 N   0  0  0  0  0  0  0  0  0  0  0  0
   12.3934    4.1601   21.6099 N   0  0  0  0  0  0  0  0  0  0  0  0
    6.0886    0.5684   17.4508 N   0  0  0  0  0  0  0  0  0  0  0  0
   12.6859   -1.0376   22.9622 C   0  0  0  0  0  0  0  0  0  0  0  0
   12.1578    1.3486   23.0991 C   0  0  0  0  0  0  0  0  0  0  0  0
   12.6364    2.6026   23.4048 O   0  0  0  0  0  0  0  0  0  0  0  0
    5.0808    1.3840   17.7556 C   0  0  0  0  0  0  0  0  0  0  0  0
   11.3724   -1.3145   22.5489 C   0  0  0  0  0  0  0  0  0  0  0  0
    6.2383    0.0815   19.8006 C   0  0  0  0  0  0  0  0  0  0  0  0
    6.9351   -0.6037   20.9584 C   0  0  0  0  0  0  0  0  0  0  0  0
    8.2558    0.0975   21.2928 C   0  0  0  0  0  0  0  0  0  0  0  0
   10.8290    1.0622   22.6999 C   0  0  0  0  0  0  0  0  0  0  0  0
   12.6150    5.0250   23.4880 C   0  0  0  0  0  0  0  0  0  0  0  0
    6.6694   -0.0911   18.4728 C   0  0  0  0  0  0  0  0  0  0  0  0
   11.9458    3.7588   22.9481 C   0  0  1  0  0  0  0  0  0  0  0  0
   13.0821    5.2561   22.0578 C   0  0  0  0  0  0  0  0  0  0  0  0
   13.6801   -2.1620   23.1123 C   0  0  0  0  0  0  0  0  0  0  0  0
    4.5850    1.6184   18.9694 N   0  0  0  0  0  0  0  0  0  0  0  0
    8.4626    1.2514   20.9134 O   0  0  0  0  0  0  0  0  0  0  0  0
   13.7657    6.0804   21.4863 O   0  0  0  0  0  0  0  0  0  0  0  0
    5.1664    0.9721   19.9991 C   0  0  0  0  0  0  0  0  0  0  0  0
   10.4418   -0.2696   22.4040 C   0  0  0  0  0  0  0  0  0  0  0  0
   13.0708    0.2861   23.2272 C   0  0  0  0  0  0  0  0  0  0  0  0
    8.8861   -1.6041   22.1439 H   0  0  0  0  0  0  0  0  0  0  0  0
   12.2744    3.7566   20.6922 H   0  0  0  0  0  0  0  0  0  0  0  0
    4.6406    1.9259   16.9349 H   0  0  0  0  0  0  0  0  0  0  0  0
   11.0826   -2.3324   22.3291 H   0  0  0  0  0  0  0  0  0  0  0  0
    7.1183   -1.6459   20.6972 H   0  0  0  0  0  0  0  0  0  0  0  0
    6.2897   -0.6004   21.8372 H   0  0  0  0  0  0  0  0  0  0  0  0
   10.1037    1.8549   22.6253 H   0  0  0  0  0  0  0  0  0  0  0  0
   13.4117    4.8409   24.2015 H   0  0  0  0  0  0  0  0  0  0  0  0
   11.9163    5.7704   23.8618 H   0  0  0  0  0  0  0  0  0  0  0  0
    7.5029   -0.7318   18.2296 H   0  0  0  0  0  0  0  0  0  0  0  0
   10.8663    3.7773   23.1042 H   0  0  0  0  0  0  0  0  0  0  0  0
   14.5190   -1.8725   23.7430 H   0  0  0  0  0  0  0  0  0  0  0  0
   13.2002   -3.0198   23.5739 H   0  0  0  0  0  0  0  0  0  0  0  0
   14.0516   -2.4573   22.1328 H   0  0  0  0  0  0  0  0  0  0  0  0
    4.7905    1.1881   20.9868 H   0  0  0  0  0  0  0  0  0  0  0  0
   14.0852    0.4930   23.5238 H   0  0  0  0  0  0  0  0  0  0  0  0
  1 11  1  0  0  0  0
  1 22  1  0  0  0  0
  1 24  1  0  0  0  0
  2 15  1  0  0  0  0
  2 16  1  0  0  0  0
  2 25  1  0  0  0  0
  3  7  2  0  0  0  0
  3 14  1  0  0  0  0
  4  8  2  0  0  0  0
  4 17  1  0  0  0  0
  4 23  1  0  0  0  0
  5  6  1  0  0  0  0
  5 12  1  0  0  0  0
  5 23  2  0  0  0  0
  6 15  1  0  0  0  0
  7 18  1  0  0  0  0
  7 26  1  0  0  0  0
  8 22  1  0  0  0  0
  8 27  1  0  0  0  0
  9 10  1  0  0  0  0
  9 14  2  0  0  0  0
  9 21  1  0  0  0  0
 10 11  1  0  0  0  0
 10 28  1  0  0  0  0
 10 29  1  0  0  0  0
 11 19  2  0  0  0  0
 12 22  2  0  0  0  0
 12 30  1  0  0  0  0
 13 15  1  0  0  0  0
 13 16  1  0  0  0  0
 13 31  1  0  0  0  0
 13 32  1  0  0  0  0
 14 33  1  0  0  0  0
 15 34  1  1  0  0  0
 16 20  2  0  0  0  0
 17 35  1  0  0  0  0
 17 36  1  0  0  0  0
 17 37  1  0  0  0  0
 18 21  2  0  0  0  0
 21 38  1  0  0  0  0
 23 39  1  0  0  0  0
M  END
$$$$
