@<TRIPOS>MOLECULE
6M2N_ligand1
29   31    1
SMALL
USER_CHARGES


@<TRIPOS>ATOM
      1 C4         13.3890   -1.6860   24.5610 C.ar      1 3WL         0.0000 
      2 C5         14.4050   -2.0810   25.4520 C.ar      1 3WL         0.0000 
      3 C6         11.0490   -1.9810   23.6430 C.2       1 3WL         0.0000 
      4 C7         10.9810   -0.7790   23.0300 C.2       1 3WL         0.0000 
      5 C8          9.8770   -0.4370   22.1260 C.2       1 3WL         0.0000 
      6 C10         7.8550   -1.4000   20.8920 C.ar      1 3WL         0.0000 
      7 C13         8.1860   -3.8190   22.3050 C.ar      1 3WL         0.0000 
      8 O           9.7830    0.6960   21.6510 O.2       1 3WL         0.0000 
      9 C9          8.9090   -1.5280   21.8370 C.ar      1 3WL         0.0000 
     10 C14         9.0750   -2.7510   22.5300 C.ar      1 3WL         0.0000 
     11 C12         7.1510   -3.6970   21.3630 C.ar      1 3WL         0.0000 
     12 O2          6.3240   -4.7570   21.1220 O.co2     1 3WL         0.0000 
     13 C11         6.9980   -2.4950   20.6450 C.ar      1 3WL         0.0000 
     14 O3          6.0420   -2.4300   19.6760 O.3       1 3WL         0.0000 
     15 O4          7.6570   -0.2410   20.1900 O.3       1 3WL         0.0000 
     16 O1         10.0960   -2.9510   23.4290 O.3       1 3WL         0.0000 
     17 C3         12.1500   -2.3680   24.5480 C.ar      1 3WL         0.0000 
     18 C2         11.9450   -3.4400   25.4460 C.ar      1 3WL         0.0000 
     19 C1         12.9620   -3.8230   26.3400 C.ar      1 3WL         0.0000 
     20 C          14.1970   -3.1520   26.3370 C.ar      1 3WL         0.0000 
     21 HC4        13.5860   -0.8650   23.8870 H         1 3WL         0.0000 
     22 HC5        15.3490   -1.5600   25.4580 H         1 3WL         0.0000 
     23 HC7        11.7230   -0.0160   23.1990 H         1 3WL         0.0000 
     24 HC13        8.3180   -4.7470   22.8430 H         1 3WL         0.0000 
     25 HO3         5.6390   -3.2800   19.5860 H         1 3WL         0.0000 
     26 HO4         8.2390    0.4500   20.4730 H         1 3WL         0.0000 
     27 HC2        11.0050   -3.9720   25.4680 H         1 3WL         0.0000 
     28 HC1        12.7830   -4.6300   27.0300 H         1 3WL         0.0000 
     29 HXT        14.9790   -3.4510   27.0190 H         1 3WL         0.0000 
@<TRIPOS>BOND
     1    1    2 ar   
     2    1   17 ar   
     3    1   21 1    
     4    2   20 ar   
     5    2   22 1    
     6    3    4 2    
     7    3   16 1    
     8    3   17 1    
     9    4    5 1    
    10    4   23 1    
    11    5    8 2    
    12    5    9 1    
    13    6    9 ar   
    14    6   13 ar   
    15    6   15 1    
    16    7   10 ar   
    17    7   11 ar   
    18    7   24 1    
    19    9   10 ar   
    20   10   16 1    
    21   11   12 1    
    22   11   13 ar   
    23   13   14 1    
    24   14   25 1    
    25   15   26 1    
    26   17   18 ar   
    27   18   19 ar   
    28   18   27 1    
    29   19   20 ar   
    30   19   28 1    
    31   20   29 1    
@<TRIPOS>SUBSTRUCTURE
     1 3WL         1 GROUP             0 A     ****    0 ROOT    
