@<TRIPOS>MOLECULE
7AU4_ligand1
34   37    1
SMALL
USER_CHARGES


@<TRIPOS>ATOM
      1 C1         12.1984   -0.2807   23.0852 C.ar      1 UNK         0.0000 
      2 C2          6.7043   -1.0746   19.2898 C.3       1 UNK         0.0000 
      3 C3          5.7708    0.0075   18.8747 C.2       1 UNK         0.0000 
      4 C4          4.9267    0.8045   19.6911 C.2       1 UNK         0.0000 
      5 C5          4.2298    1.5381   18.7901 C.2       1 UNK         0.0000 
      6 C6          7.7527    0.0060   21.2220 C.2       1 UNK         0.0000 
      7 C7         11.3978    0.7639   23.5954 C.ar      1 UNK         0.0000 
      8 C8         11.6145   -1.4395   22.5195 C.ar      1 UNK         0.0000 
      9 C9         10.2155   -1.5516   22.4130 C.ar      1 UNK         0.0000 
     10 C10         9.4335   -0.4810   22.8847 C.ar      1 UNK         0.0000 
     11 C11        10.0040    0.6388   23.4801 C.ar      1 UNK         0.0000 
     12 C12         8.9603    1.6589   23.8670 C.3       1 UNK         0.0000 
     13 C13         7.6170    0.9306   23.6087 C.3       1 UNK         0.0000 
     14 C14         7.9579   -0.2724   22.6949 C.3       1 UNK         0.0000 
     15 C15         6.5753   -1.8190   21.6640 C.2       1 UNK         0.0000 
     16 N16         7.1040   -1.4374   22.8347 N.am      1 UNK         0.0000 
     17 N17         7.0190   -0.9839   20.7093 N.am      1 UNK         0.0000 
     18 N18         5.6715    0.3083   17.6005 N.2       1 UNK         0.0000 
     19 O19         5.8098   -2.7683   21.5032 O.2       1 UNK         0.0000 
     20 O20         4.6419    1.2427   17.5344 O.3       1 UNK         0.0000 
     21 O21         8.2137    0.9817   20.6274 O.2       1 UNK         0.0000 
     22 Cl22       13.9085   -0.1382   23.1270 Cl        1 UNK         0.0000 
     23 H23         7.6306   -1.0142   18.7165 H         1 UNK         0.0000 
     24 H24         6.2605   -2.0416   19.0468 H         1 UNK         0.0000 
     25 H25         4.8223    0.8141   20.7617 H         1 UNK         0.0000 
     26 H26         3.4383    2.2661   18.8834 H         1 UNK         0.0000 
     27 H27        11.8450    1.6493   24.0238 H         1 UNK         0.0000 
     28 H28        12.2446   -2.2282   22.1340 H         1 UNK         0.0000 
     29 H29         9.7657   -2.4080   21.9322 H         1 UNK         0.0000 
     30 H30         9.0631    2.5350   23.2255 H         1 UNK         0.0000 
     31 H31         9.0685    1.9717   24.9061 H         1 UNK         0.0000 
     32 H32         6.8468    1.5908   23.2054 H         1 UNK         0.0000 
     33 H33         7.2455    0.5496   24.5597 H         1 UNK         0.0000 
     34 H34         6.9268   -1.8882   23.7205 H         1 UNK         0.0000 
@<TRIPOS>BOND
     1    1    7 ar   
     2    1    8 ar   
     3    1   22 1    
     4    2    3 1    
     5    2   17 1    
     6    2   23 1    
     7    2   24 1    
     8    3    4 1    
     9    3   18 2    
    10    4    5 2    
    11    4   25 1    
    12    5   20 1    
    13    5   26 1    
    14    6   14 1    
    15    6   17 am   BACKBONE|DICT|INTERRES
    16    6   21 2    
    17    7   11 ar   
    18    7   27 1    
    19    8    9 ar   
    20    8   28 1    
    21    9   10 ar   
    22    9   29 1    
    23   10   11 ar   
    24   10   14 1    
    25   11   12 1    
    26   12   13 1    
    27   12   30 1    
    28   12   31 1    
    29   13   14 1    
    30   13   32 1    
    31   13   33 1    
    32   14   16 1    
    33   15   16 am   BACKBONE|DICT|INTERRES
    34   15   17 am   BACKBONE|DICT|INTERRES
    35   15   19 2    
    36   16   34 1    
    37   18   20 1    
@<TRIPOS>SUBSTRUCTURE
     1 UNK         1 GROUP             0       ****    0 ROOT    
