@<TRIPOS>MOLECULE
7B2J_ligand1
37   39    1
SMALL
USER_CHARGES


@<TRIPOS>ATOM
      1 N1         10.0748   -0.1742   22.8842 N.am      1 UNK         0.0000 
      2 N2          7.8442   -0.4248   18.7970 N.2       1 UNK         0.0000 
      3 C3         10.0288   -1.4823   23.5582 C.3       1 UNK         0.0000 
      4 C4          9.3655    0.1701   21.7868 C.2       1 UNK         0.0000 
      5 C5          8.5205   -0.9023   21.0904 C.3       1 UNK         0.0000 
      6 C6          5.8862    0.4466   19.1038 C.ar      1 UNK         0.0000 
      7 C7          4.5895    0.9603   18.9791 C.ar      1 UNK         0.0000 
      8 C8          4.4015    1.1826   21.4133 C.ar      1 UNK         0.0000 
      9 C9         11.0106    0.7582   23.5226 C.3       1 UNK         0.0000 
     10 C10        13.8509   -1.8403   24.1568 C.3       1 UNK         0.0000 
     11 C11         5.6737    0.6069   21.5563 C.ar      1 UNK         0.0000 
     12 C12         6.3884    0.2513   20.4007 C.ar      1 UNK         0.0000 
     13 C13        12.4253    0.1644   23.4654 C.3       1 UNK         0.0000 
     14 C14        12.4606   -1.2045   24.1646 C.3       1 UNK         0.0000 
     15 C15        11.4161   -2.1331   23.5314 C.3       1 UNK         0.0000 
     16 C16         3.8560    1.3409   20.1270 C.ar      1 UNK         0.0000 
     17 N17         7.5961   -0.3472   20.1327 N.pl3     1 UNK         0.0000 
     18 N18         6.8138    0.0427   18.1631 N.2       1 UNK         0.0000 
     19 O19         9.3953    1.3084   21.3142 O.2       1 UNK         0.0000 
     20 H20         9.3268   -2.1920   23.1318 H         1 UNK         0.0000 
     21 H21         9.7070   -1.3313   24.5895 H         1 UNK         0.0000 
     22 H22         7.9071   -1.4402   21.8085 H         1 UNK         0.0000 
     23 H23         9.1756   -1.6230   20.6059 H         1 UNK         0.0000 
     24 H24         4.1633    1.0572   17.9915 H         1 UNK         0.0000 
     25 H25         3.8332    1.4720   22.2857 H         1 UNK         0.0000 
     26 H26        10.7124    0.9113   24.5591 H         1 UNK         0.0000 
     27 H27        11.0187    1.7486   23.0655 H         1 UNK         0.0000 
     28 H28        13.8399   -2.8237   24.6289 H         1 UNK         0.0000 
     29 H29        14.2265   -1.9592   23.1405 H         1 UNK         0.0000 
     30 H30        14.5510   -1.2224   24.7151 H         1 UNK         0.0000 
     31 H31         6.0868    0.4290   22.5347 H         1 UNK         0.0000 
     32 H32        13.1206    0.8472   23.9396 H         1 UNK         0.0000 
     33 H33        12.7424    0.0634   22.4258 H         1 UNK         0.0000 
     34 H34        12.1839   -1.0454   25.2071 H         1 UNK         0.0000 
     35 H35        11.6935   -2.3652   22.5017 H         1 UNK         0.0000 
     36 H36        11.3843   -3.0794   24.0711 H         1 UNK         0.0000 
     37 H37         2.8599    1.7411   20.0225 H         1 UNK         0.0000 
@<TRIPOS>BOND
     1    1    3 1    
     2    1    4 am   BACKBONE|DICT|INTERRES
     3    1    9 1    
     4    2   17 ar   
     5    2   18 ar   
     6    3   15 1    
     7    3   20 1    
     8    3   21 1    
     9    4    5 1    
    10    4   19 2    
    11    5   17 1    
    12    5   22 1    
    13    5   23 1    
    14    6    7 ar   
    15    6   12 ar   
    16    6   18 ar   
    17    7   16 ar   
    18    7   24 1    
    19    8   11 ar   
    20    8   16 ar   
    21    8   25 1    
    22    9   13 1    
    23    9   26 1    
    24    9   27 1    
    25   10   14 1    
    26   10   28 1    
    27   10   29 1    
    28   10   30 1    
    29   11   12 ar   
    30   11   31 1    
    31   12   17 ar   
    32   13   14 1    
    33   13   32 1    
    34   13   33 1    
    35   14   15 1    
    36   14   34 1    
    37   15   35 1    
    38   15   36 1    
    39   16   37 1    
@<TRIPOS>SUBSTRUCTURE
     1 UNK         1 GROUP             0       ****    0 ROOT    
