@<TRIPOS>MOLECULE
7B2U_ligand1
39   41    1
SMALL
USER_CHARGES


@<TRIPOS>ATOM
      1 C1         11.0352   -1.1424   22.9982 C.3       1 UNK         0.0000 
      2 C2          4.4954    1.1835   19.0666 C.ar      1 UNK         0.0000 
      3 C3         12.3316   -1.8971   22.6470 C.3       1 UNK         0.0000 
      4 C4         13.5695   -1.2794   23.2941 C.3       1 UNK         0.0000 
      5 C5          6.4195   -0.0075   19.8839 C.ar      1 UNK         0.0000 
      6 C6         13.3746   -1.2225   24.8101 C.3       1 UNK         0.0000 
      7 C7         12.1728   -0.3507   25.1579 C.3       1 UNK         0.0000 
      8 C8         10.9049   -0.9135   24.5228 C.3       1 UNK         0.0000 
      9 C9          8.1696   -0.2857   21.5380 C.2       1 UNK         0.0000 
     10 C10         7.0063    0.1715   18.6153 C.ar      1 UNK         0.0000 
     11 C11         5.1613    1.3247   17.8360 C.ar      1 UNK         0.0000 
     12 N12         7.4012   -2.2115   22.4465 N.am      1 UNK         0.0000 
     13 N13         7.0732   -0.7171   20.9099 N.am      1 UNK         0.0000 
     14 C14         9.8382   -1.9599   22.4882 C.3       1 UNK         0.0000 
     15 N15         6.3947    0.8292   17.6085 N.ar      1 UNK         0.0000 
     16 C16         6.6010   -1.8571   21.4416 C.2       1 UNK         0.0000 
     17 C17         5.1360    0.5159   20.1145 C.ar      1 UNK         0.0000 
     18 C18         8.4781   -1.2696   22.6493 C.3       1 UNK         0.0000 
     19 F19         3.2405    1.6340   19.2450 F         1 UNK         0.0000 
     20 O20         5.6178   -2.4890   21.0645 O.2       1 UNK         0.0000 
     21 O21         8.8279    0.7259   21.2898 O.2       1 UNK         0.0000 
     22 H22        11.0632   -0.1731   22.4998 H         1 UNK         0.0000 
     23 H23        12.4635   -1.9534   21.5667 H         1 UNK         0.0000 
     24 H24        12.2474   -2.9247   22.9960 H         1 UNK         0.0000 
     25 H25        13.7572   -0.2826   22.8919 H         1 UNK         0.0000 
     26 H26        14.4364   -1.8914   23.0543 H         1 UNK         0.0000 
     27 H27        14.2525   -0.8335   25.2982 H         1 UNK         0.0000 
     28 H28        13.2366   -2.2311   25.2021 H         1 UNK         0.0000 
     29 H29        12.3408    0.6760   24.8296 H         1 UNK         0.0000 
     30 H30        12.0430   -0.3274   26.2375 H         1 UNK         0.0000 
     31 H31        10.6598   -1.8571   25.0120 H         1 UNK         0.0000 
     32 H32        10.0873   -0.2303   24.7452 H         1 UNK         0.0000 
     33 H33         7.9778   -0.2404   18.3892 H         1 UNK         0.0000 
     34 H34         4.6865    1.8169   17.0033 H         1 UNK         0.0000 
     35 H35         7.2751   -3.0369   23.0153 H         1 UNK         0.0000 
     36 H36         9.8166   -2.9142   23.0167 H         1 UNK         0.0000 
     37 H37         9.9904   -2.2162   21.4397 H         1 UNK         0.0000 
     38 H38         4.6361    0.3835   21.0638 H         1 UNK         0.0000 
     39 H39         8.3354   -0.8025   23.6227 H         1 UNK         0.0000 
@<TRIPOS>BOND
     1    1    3 1    
     2    1    8 1    
     3    1   14 1    
     4    1   22 1    
     5    2   11 ar   
     6    2   17 ar   
     7    2   19 1    
     8    3    4 1    
     9    3   23 1    
    10    3   24 1    
    11    4    6 1    
    12    4   25 1    
    13    4   26 1    
    14    5   10 ar   
    15    5   13 1    
    16    5   17 ar   
    17    6    7 1    
    18    6   27 1    
    19    6   28 1    
    20    7    8 1    
    21    7   29 1    
    22    7   30 1    
    23    8   31 1    
    24    8   32 1    
    25    9   13 am   BACKBONE|DICT|INTERRES
    26    9   18 1    
    27    9   21 2    
    28   10   15 ar   
    29   10   33 1    
    30   11   15 ar   
    31   11   34 1    
    32   12   16 am   BACKBONE|DICT|INTERRES
    33   12   18 1    
    34   12   35 1    
    35   13   16 am   BACKBONE|DICT|INTERRES
    36   14   18 1    
    37   14   36 1    
    38   14   37 1    
    39   16   20 2    
    40   17   38 1    
    41   18   39 1    
@<TRIPOS>SUBSTRUCTURE
     1 UNK         1 GROUP             0       ****    0 ROOT    
