@<TRIPOS>MOLECULE
7B5Z_ligand1
35   37    1
SMALL
USER_CHARGES


@<TRIPOS>ATOM
      1 C1         11.2608    0.6011   23.3734 C.3       1 UNK         0.0000 
      2 C2         11.9144   -2.2275   22.9524 C.3       1 UNK         0.0000 
      3 C3          9.5373    0.1289   21.6745 C.2       1 UNK         0.0000 
      4 C4          8.6841   -0.9145   20.9529 C.3       1 UNK         0.0000 
      5 C5          5.8282    0.5119   21.5658 C.ar      1 UNK         0.0000 
      6 C6          5.9637    0.4265   19.1028 C.ar      1 UNK         0.0000 
      7 C7          4.6459    0.8933   19.0372 C.ar      1 UNK         0.0000 
      8 C8          3.9409    1.2209   20.2178 C.ar      1 UNK         0.0000 
      9 C9          4.5334    1.0467   21.4806 C.ar      1 UNK         0.0000 
     10 C10         6.5144    0.2142   20.3776 C.ar      1 UNK         0.0000 
     11 C11        10.4743   -1.7076   23.0824 C.3       1 UNK         0.0000 
     12 N12        10.3734   -0.3074   22.6384 N.am      1 UNK         0.0000 
     13 N13         7.7241   -0.3403   20.0507 N.pl3     1 UNK         0.0000 
     14 C14        12.7166    0.1602   23.1767 C.3       1 UNK         0.0000 
     15 N15         7.9322   -0.3760   18.7069 N.2       1 UNK         0.0000 
     16 C16        13.7811   -1.6822   24.5275 C.2       1 UNK         0.0000 
     17 C17        12.8905   -1.2809   23.6073 C.2       1 UNK         0.0000 
     18 N18         6.8674    0.0765   18.1214 N.2       1 UNK         0.0000 
     19 O19         9.4546    1.3153   21.3496 O.2       1 UNK         0.0000 
     20 H20        11.0035    0.5653   24.4309 H         1 UNK         0.0000 
     21 H21        11.1555    1.6455   23.0739 H         1 UNK         0.0000 
     22 H22        12.1806   -2.3326   21.9004 H         1 UNK         0.0000 
     23 H23        11.9982   -3.2107   23.4093 H         1 UNK         0.0000 
     24 H24         8.1113   -1.4914   21.6768 H         1 UNK         0.0000 
     25 H25         9.3259   -1.6033   20.4145 H         1 UNK         0.0000 
     26 H26         6.2849    0.3250   22.5230 H         1 UNK         0.0000 
     27 H27         4.1858    1.0011   18.0661 H         1 UNK         0.0000 
     28 H28         2.9308    1.5932   20.1586 H         1 UNK         0.0000 
     29 H29         3.9862    1.2951   22.3789 H         1 UNK         0.0000 
     30 H30        10.1372   -1.7296   24.1147 H         1 UNK         0.0000 
     31 H31         9.8300   -2.4123   22.5626 H         1 UNK         0.0000 
     32 H32        13.3806    0.8090   23.7346 H         1 UNK         0.0000 
     33 H33        12.9961    0.2401   22.1259 H         1 UNK         0.0000 
     34 H34        14.4420   -0.9804   25.0097 H         1 UNK         0.0000 
     35 H35        13.8564   -2.7186   24.8213 H         1 UNK         0.0000 
@<TRIPOS>BOND
     1    1   12 1    
     2    1   14 1    
     3    1   20 1    
     4    1   21 1    
     5    2   11 1    
     6    2   17 1    
     7    2   22 1    
     8    2   23 1    
     9    3    4 1    
    10    3   12 am   BACKBONE|DICT|INTERRES
    11    3   19 2    
    12    4   13 1    
    13    4   24 1    
    14    4   25 1    
    15    5    9 ar   
    16    5   10 ar   
    17    5   26 1    
    18    6    7 ar   
    19    6   10 ar   
    20    6   18 ar   
    21    7    8 ar   
    22    7   27 1    
    23    8    9 ar   
    24    8   28 1    
    25    9   29 1    
    26   10   13 ar   
    27   11   12 1    
    28   11   30 1    
    29   11   31 1    
    30   13   15 ar   
    31   14   17 1    
    32   14   32 1    
    33   14   33 1    
    34   15   18 ar   
    35   16   17 2    
    36   16   34 1    
    37   16   35 1    
@<TRIPOS>SUBSTRUCTURE
     1 UNK         1 GROUP             0       ****    0 ROOT    
