@<TRIPOS>MOLECULE
7B77_ligand1
37   39    1
SMALL
USER_CHARGES


@<TRIPOS>ATOM
      1 C1         12.1659   -0.6324   23.7315 C.2       1 UNK         0.0000 
      2 C2          5.7446    0.6232   21.5495 C.ar      1 UNK         0.0000 
      3 C3         12.8286   -1.2357   24.8365 C.2       1 UNK         0.0000 
      4 C4         13.8751   -1.9459   24.3238 C.2       1 UNK         0.0000 
      5 C5          4.5872    0.9246   18.9965 C.ar      1 UNK         0.0000 
      6 C6         12.8860   -1.0099   22.6296 C.2       1 UNK         0.0000 
      7 C7          9.3325   -0.0546   21.8803 C.2       1 UNK         0.0000 
      8 C8          8.5376   -1.0152   20.9916 C.3       1 UNK         0.0000 
      9 C9          5.9009    0.4478   19.0934 C.ar      1 UNK         0.0000 
     10 C10         3.8720    1.3002   20.1555 C.ar      1 UNK         0.0000 
     11 C11         4.4551    1.1720   21.4286 C.ar      1 UNK         0.0000 
     12 N12         9.8104   -0.5161   23.0606 N.am      1 UNK         0.0000 
     13 N13         7.6308   -0.3500   20.0824 N.pl3     1 UNK         0.0000 
     14 C14        10.8918    0.1726   23.7744 C.3       1 UNK         0.0000 
     15 N15         7.8517   -0.4096   18.7395 N.2       1 UNK         0.0000 
     16 C16         8.0139   -1.6510   24.3716 C.3       1 UNK         0.0000 
     17 C17         6.4373    0.2656   20.3794 C.ar      1 UNK         0.0000 
     18 C18         9.3824   -1.7819   23.6851 C.3       1 UNK         0.0000 
     19 N19         6.8069    0.0568   18.1304 N.2       1 UNK         0.0000 
     20 O20        13.9282   -1.8128   22.9717 O.3       1 UNK         0.0000 
     21 O21         9.5676    1.0821   21.4643 O.2       1 UNK         0.0000 
     22 H22         6.1940    0.4824   22.5190 H         1 UNK         0.0000 
     23 H23        12.5556   -1.1816   25.8797 H         1 UNK         0.0000 
     24 H24        14.6408   -2.5660   24.7633 H         1 UNK         0.0000 
     25 H25         4.1354    1.0034   18.0194 H         1 UNK         0.0000 
     26 H26        12.7756   -0.8277   21.5720 H         1 UNK         0.0000 
     27 H27         7.9291   -1.7133   21.5617 H         1 UNK         0.0000 
     28 H28         9.2517   -1.6099   20.4297 H         1 UNK         0.0000 
     29 H29         2.8664    1.6805   20.0721 H         1 UNK         0.0000 
     30 H30         3.9042    1.4685   22.3087 H         1 UNK         0.0000 
     31 H31        11.1008    1.1714   23.3875 H         1 UNK         0.0000 
     32 H32        10.5938    0.3117   24.8152 H         1 UNK         0.0000 
     33 H33         7.7311   -2.5898   24.8469 H         1 UNK         0.0000 
     34 H34         8.0362   -0.8848   25.1466 H         1 UNK         0.0000 
     35 H35         7.2212   -1.3903   23.6713 H         1 UNK         0.0000 
     36 H36        10.0994   -2.0976   24.4437 H         1 UNK         0.0000 
     37 H37         9.3846   -2.5980   22.9621 H         1 UNK         0.0000 
@<TRIPOS>BOND
     1    1    3 1    
     2    1    6 2    
     3    1   14 1    
     4    2   11 ar   
     5    2   17 ar   
     6    2   22 1    
     7    3    4 2    
     8    3   23 1    
     9    4   20 1    
    10    4   24 1    
    11    5    9 ar   
    12    5   10 ar   
    13    5   25 1    
    14    6   20 1    
    15    6   26 1    
    16    7    8 1    
    17    7   12 am   BACKBONE|DICT|INTERRES
    18    7   21 2    
    19    8   13 1    
    20    8   27 1    
    21    8   28 1    
    22    9   17 ar   
    23    9   19 ar   
    24   10   11 ar   
    25   10   29 1    
    26   11   30 1    
    27   12   14 1    
    28   12   18 1    
    29   13   15 ar   
    30   13   17 ar   
    31   14   31 1    
    32   14   32 1    
    33   15   19 ar   
    34   16   18 1    
    35   16   33 1    
    36   16   34 1    
    37   16   35 1    
    38   18   36 1    
    39   18   37 1    
@<TRIPOS>SUBSTRUCTURE
     1 UNK         1 GROUP             0       ****    0 ROOT    
