@<TRIPOS>MOLECULE
7E18_ligand1
74   78    1
SMALL
USER_CHARGES


@<TRIPOS>ATOM
      1 C1         10.0807    6.8018   26.0130 C.ar      1 UNK         0.0000 
      2 C2          9.9046    1.8166   22.4671 C.2       1 UNK         0.0000 
      3 C3         10.0860   -0.6732   22.4576 C.3       1 UNK         0.0000 
      4 C4          8.6026   -1.0466   22.3116 C.2       1 UNK         0.0000 
      5 C5          6.8624   -2.0209   20.8322 C.3       1 UNK         0.0000 
      6 C6          6.4921   -1.3088   19.5091 C.3       1 UNK         0.0000 
      7 C7          6.1538    0.1755   19.7350 C.3       1 UNK         0.0000 
      8 C8          4.9392    0.3551   20.6607 C.3       1 UNK         0.0000 
      9 C9          4.0773    1.4358   20.0235 C.3       1 UNK         0.0000 
     10 C10         5.7090    0.8947   18.4671 C.2       1 UNK         0.0000 
     11 C11         6.6588   -3.5404   20.7603 C.2       1 UNK         0.0000 
     12 C12         9.6558    7.4082   24.8161 C.ar      1 UNK         0.0000 
     13 C13         7.1547   -4.3309   21.9127 C.2       1 UNK         0.0000 
     14 C14         7.2799   -5.2258   23.9549 C.ar      1 UNK         0.0000 
     15 C15         8.5784   -5.5798   23.4852 C.ar      1 UNK         0.0000 
     16 C16         6.9301   -5.6099   25.2695 C.ar      1 UNK         0.0000 
     17 C17         7.8380   -6.3089   26.0893 C.ar      1 UNK         0.0000 
     18 C18         9.1182   -6.6369   25.6069 C.ar      1 UNK         0.0000 
     19 C19         9.4882   -6.2778   24.2999 C.ar      1 UNK         0.0000 
     20 C20        10.7646   -1.7313   23.3578 C.3       1 UNK         0.0000 
     21 C21        12.3013   -1.6391   23.4406 C.3       1 UNK         0.0000 
     22 C22        12.8386   -2.5526   24.5538 C.3       1 UNK         0.0000 
     23 C23         9.4995    6.6351   23.6525 C.ar      1 UNK         0.0000 
     24 C24        12.9621   -1.9877   22.1006 C.3       1 UNK         0.0000 
     25 C25         9.7546    5.2556   23.7114 C.ar      1 UNK         0.0000 
     26 C26        10.1872    4.6162   24.9060 C.ar      1 UNK         0.0000 
     27 C27        10.3511    5.4103   26.0669 C.ar      1 UNK         0.0000 
     28 C28        10.0017    3.0226   23.3113 C.ar      1 UNK         0.0000 
     29 C29        10.3554    3.2204   24.6201 C.ar      1 UNK         0.0000 
     30 C30        10.9385    5.5079   28.3941 C.3       1 UNK         0.0000 
     31 N31         9.6632    4.2513   22.7707 N.pl3     1 UNK         0.0000 
     32 N32        10.2217    0.6540   23.0652 N.am      1 UNK         0.0000 
     33 N33         8.2409   -1.6689   21.1788 N.am      1 UNK         0.0000 
     34 N34         4.5531    1.5198   18.6592 N.am      1 UNK         0.0000 
     35 N35         6.4878   -4.5179   23.0565 N.2       1 UNK         0.0000 
     36 O36        10.7696    4.7527   27.2042 O.3       1 UNK         0.0000 
     37 O37         9.5123    1.8911   21.3023 O.2       1 UNK         0.0000 
     38 O38         7.8088   -0.7806   23.2152 O.2       1 UNK         0.0000 
     39 O39         6.0625   -4.1013   19.8412 O.2       1 UNK         0.0000 
     40 O40         6.3461    0.8980   17.4195 O.2       1 UNK         0.0000 
     41 S41         8.7798   -5.0181   21.8317 S.3       1 UNK         0.0000 
     42 H42        10.1924    7.4319   26.8826 H         1 UNK         0.0000 
     43 H43        10.5477   -0.6570   21.4709 H         1 UNK         0.0000 
     44 H44         6.1815   -1.6921   21.6154 H         1 UNK         0.0000 
     45 H45         5.6194   -1.7775   19.0519 H         1 UNK         0.0000 
     46 H46         7.3007   -1.4082   18.7834 H         1 UNK         0.0000 
     47 H47         7.0143    0.7130   20.1337 H         1 UNK         0.0000 
     48 H48         5.2263    0.6099   21.6794 H         1 UNK         0.0000 
     49 H49         4.3586   -0.5655   20.7112 H         1 UNK         0.0000 
     50 H50         4.2437    2.3877   20.5261 H         1 UNK         0.0000 
     51 H51         3.0159    1.1946   20.0724 H         1 UNK         0.0000 
     52 H52         9.4441    8.4659   24.7958 H         1 UNK         0.0000 
     53 H53         5.9524   -5.3598   25.6525 H         1 UNK         0.0000 
     54 H54         7.5544   -6.5949   27.0924 H         1 UNK         0.0000 
     55 H55         9.8122   -7.1739   26.2390 H         1 UNK         0.0000 
     56 H56        10.4644   -6.5408   23.9277 H         1 UNK         0.0000 
     57 H57        10.5046   -2.7328   23.0107 H         1 UNK         0.0000 
     58 H58        10.3463   -1.6605   24.3634 H         1 UNK         0.0000 
     59 H59        12.5797   -0.6178   23.7003 H         1 UNK         0.0000 
     60 H60        13.9255   -2.5050   24.6176 H         1 UNK         0.0000 
     61 H61        12.4460   -2.2579   25.5269 H         1 UNK         0.0000 
     62 H62        12.5623   -3.5936   24.3811 H         1 UNK         0.0000 
     63 H63         9.1731    7.0926   22.7302 H         1 UNK         0.0000 
     64 H64        14.0360   -2.0940   22.2137 H         1 UNK         0.0000 
     65 H65        12.5828   -2.9286   21.7046 H         1 UNK         0.0000 
     66 H66        12.7889   -1.2145   21.3531 H         1 UNK         0.0000 
     67 H67        10.6702    2.4762   25.3259 H         1 UNK         0.0000 
     68 H68        11.2888    4.8530   29.1899 H         1 UNK         0.0000 
     69 H69        11.6819    6.2954   28.2660 H         1 UNK         0.0000 
     70 H70         9.9968    5.9498   28.7201 H         1 UNK         0.0000 
     71 H71         9.4104    4.3697   21.7971 H         1 UNK         0.0000 
     72 H72        10.5011    0.6836   24.0356 H         1 UNK         0.0000 
     73 H73         8.9576   -1.8743   20.4955 H         1 UNK         0.0000 
     74 H74         4.0665    2.0378   17.9385 H         1 UNK         0.0000 
@<TRIPOS>BOND
     1    1   12 ar   
     2    1   27 ar   
     3    1   42 1    
     4    2   28 1    
     5    2   32 am   BACKBONE|DICT|INTERRES
     6    2   37 2    
     7    3    4 1    
     8    3   20 1    
     9    3   32 1    
    10    3   43 1    
    11    4   33 am   BACKBONE|DICT|INTERRES
    12    4   38 2    
    13    5    6 1    
    14    5   11 1    
    15    5   33 1    
    16    5   44 1    
    17    6    7 1    
    18    6   45 1    
    19    6   46 1    
    20    7    8 1    
    21    7   10 1    
    22    7   47 1    
    23    8    9 1    
    24    8   48 1    
    25    8   49 1    
    26    9   34 1    
    27    9   50 1    
    28    9   51 1    
    29   10   34 am   BACKBONE|DICT|INTERRES
    30   10   40 2    
    31   11   13 1    
    32   11   39 2    
    33   12   23 ar   
    34   12   52 1    
    35   13   35 2    
    36   13   41 1    
    37   14   15 ar   
    38   14   16 ar   
    39   14   35 1    
    40   15   19 ar   
    41   15   41 1    
    42   16   17 ar   
    43   16   53 1    
    44   17   18 ar   
    45   17   54 1    
    46   18   19 ar   
    47   18   55 1    
    48   19   56 1    
    49   20   21 1    
    50   20   57 1    
    51   20   58 1    
    52   21   22 1    
    53   21   24 1    
    54   21   59 1    
    55   22   60 1    
    56   22   61 1    
    57   22   62 1    
    58   23   25 ar   
    59   23   63 1    
    60   24   64 1    
    61   24   65 1    
    62   24   66 1    
    63   25   26 ar   
    64   25   31 ar   
    65   26   27 ar   
    66   26   29 ar   
    67   27   36 1    
    68   28   29 ar   
    69   28   31 ar   
    70   29   67 1    
    71   30   36 1    
    72   30   68 1    
    73   30   69 1    
    74   30   70 1    
    75   31   71 1    
    76   32   72 1    
    77   33   73 1    
    78   34   74 1    
@<TRIPOS>SUBSTRUCTURE
     1 UNK         1 GROUP             0       ****    0 ROOT    
