@<TRIPOS>MOLECULE
7E19_ligand1
86   89    1
SMALL
USER_CHARGES


@<TRIPOS>ATOM
      1 C1          5.5468    0.7046   20.5995 C.3       1 UNK         0.0000 
      2 C2          7.2215   -1.8155   20.5068 C.3       1 UNK         0.0000 
      3 C3          8.9709   -0.9132   21.9973 C.2       1 UNK         0.0000 
      4 N4          4.8301    1.5919   18.5782 N.am      1 UNK         0.0000 
      5 C5         10.0134    2.0165   22.1036 C.2       1 UNK         0.0000 
      6 N6         10.4303    0.9031   22.7300 N.am      1 UNK         0.0000 
      7 C7          6.8521   -1.0343   19.2329 C.3       1 UNK         0.0000 
      8 C8         10.0007    3.3192   22.9061 C.3       1 UNK         0.0000 
      9 C9          6.0474    1.1476   18.3117 C.2       1 UNK         0.0000 
     10 C10         6.8998   -3.3073   20.4072 C.2       1 UNK         0.0000 
     11 C11         7.3214   -4.1179   21.5597 C.2       1 UNK         0.0000 
     12 C12         7.3384   -4.9369   23.6225 C.ar      1 UNK         0.0000 
     13 C13         8.7002   -5.1783   23.2761 C.ar      1 UNK         0.0000 
     14 C14         6.9215   -5.2860   24.9247 C.ar      1 UNK         0.0000 
     15 C15         7.8259   -5.8398   25.8504 C.ar      1 UNK         0.0000 
     16 C16         9.1677   -6.0562   25.4871 C.ar      1 UNK         0.0000 
     17 C17         9.6078   -5.7260   24.1938 C.ar      1 UNK         0.0000 
     18 C18        11.1815   -1.4329   23.0412 C.3       1 UNK         0.0000 
     19 C19        12.6540   -1.0779   23.3408 C.3       1 UNK         0.0000 
     20 C20        13.5296   -1.2150   22.0979 C.3       1 UNK         0.0000 
     21 C21        13.2220   -1.9404   24.4736 C.3       1 UNK         0.0000 
     22 C22        12.1357    4.5886   23.1065 C.2       1 UNK         0.0000 
     23 C23         8.6588    4.0972   22.8293 C.3       1 UNK         0.0000 
     24 C24         8.6997    5.4060   23.6412 C.3       1 UNK         0.0000 
     25 C25         7.4557    3.2572   23.2829 C.3       1 UNK         0.0000 
     26 C26        13.8581    6.2316   23.0128 C.3       1 UNK         0.0000 
     27 C27        13.3594    7.3211   23.9473 C.ar      1 UNK         0.0000 
     28 C28        13.1038    7.0533   25.3093 C.ar      1 UNK         0.0000 
     29 C29        10.4247   -0.4369   22.1338 C.3       1 UNK         0.0000 
     30 C30        12.6034    8.0645   26.1493 C.ar      1 UNK         0.0000 
     31 C31        12.3623    9.3525   25.6334 C.ar      1 UNK         0.0000 
     32 C32        12.6353    9.6303   24.2805 C.ar      1 UNK         0.0000 
     33 C33        13.1373    8.6161   23.4433 C.ar      1 UNK         0.0000 
     34 C34         6.6297    0.4574   19.5260 C.3       1 UNK         0.0000 
     35 C35         4.5455    1.6703   19.9914 C.3       1 UNK         0.0000 
     36 N36         8.6159   -1.5235   20.8556 N.am      1 UNK         0.0000 
     37 N37         6.5610   -4.3542   22.6297 N.2       1 UNK         0.0000 
     38 N38        11.0578    4.1588   22.3739 N.am      1 UNK         0.0000 
     39 O39         9.6311    2.0171   20.9385 O.2       1 UNK         0.0000 
     40 O40         8.1772   -0.7062   22.9173 O.2       1 UNK         0.0000 
     41 O41         6.2232   -3.8122   19.5123 O.2       1 UNK         0.0000 
     42 O42         6.6294    1.2727   17.2408 O.2       1 UNK         0.0000 
     43 O43        12.8034    5.5081   22.4019 O.3       1 UNK         0.0000 
     44 O44        12.4103    4.2288   24.2448 O.2       1 UNK         0.0000 
     45 S45         8.9872   -4.6885   21.6194 S.3       1 UNK         0.0000 
     46 H46         5.9607    1.0783   21.5345 H         1 UNK         0.0000 
     47 H47         4.9976   -0.2043   20.8296 H         1 UNK         0.0000 
     48 H48         6.5762   -1.4956   21.3208 H         1 UNK         0.0000 
     49 H49         4.2596    2.0689   17.8922 H         1 UNK         0.0000 
     50 H50        10.6886    0.9738   23.7054 H         1 UNK         0.0000 
     51 H51         5.9331   -1.4319   18.7983 H         1 UNK         0.0000 
     52 H52         7.6245   -1.1608   18.4730 H         1 UNK         0.0000 
     53 H53        10.1949    3.0900   23.9523 H         1 UNK         0.0000 
     54 H54         5.8971   -5.1184   25.2196 H         1 UNK         0.0000 
     55 H55         7.4923   -6.0968   26.8445 H         1 UNK         0.0000 
     56 H56         9.8621   -6.4719   26.2016 H         1 UNK         0.0000 
     57 H57        10.6346   -5.8827   23.9051 H         1 UNK         0.0000 
     58 H58        10.6425   -1.5264   23.9796 H         1 UNK         0.0000 
     59 H59        11.1453   -2.4284   22.5948 H         1 UNK         0.0000 
     60 H60        12.7170   -0.0437   23.6832 H         1 UNK         0.0000 
     61 H61        14.5781   -1.1328   22.3631 H         1 UNK         0.0000 
     62 H62        13.3840   -2.1729   21.5993 H         1 UNK         0.0000 
     63 H63        13.3181   -0.4216   21.3926 H         1 UNK         0.0000 
     64 H64        14.2848   -1.7475   24.6272 H         1 UNK         0.0000 
     65 H65        12.7199   -1.6969   25.4069 H         1 UNK         0.0000 
     66 H66        13.0995   -3.0052   24.2743 H         1 UNK         0.0000 
     67 H67         8.4855    4.3765   21.7911 H         1 UNK         0.0000 
     68 H68         7.7418    5.9266   23.5947 H         1 UNK         0.0000 
     69 H69         8.9209    5.2138   24.6916 H         1 UNK         0.0000 
     70 H70         9.4529    6.0967   23.2644 H         1 UNK         0.0000 
     71 H71         6.5271    3.8135   23.1548 H         1 UNK         0.0000 
     72 H72         7.3597    2.3361   22.7144 H         1 UNK         0.0000 
     73 H73         7.5405    2.9918   24.3366 H         1 UNK         0.0000 
     74 H74        14.5383    5.5562   23.5328 H         1 UNK         0.0000 
     75 H75        14.4238    6.7006   22.2099 H         1 UNK         0.0000 
     76 H76        13.2898    6.0719   25.7192 H         1 UNK         0.0000 
     77 H77        10.8989   -0.3856   21.1569 H         1 UNK         0.0000 
     78 H78        12.4051    7.8528   27.1904 H         1 UNK         0.0000 
     79 H79        11.9780   10.1302   26.2781 H         1 UNK         0.0000 
     80 H80        12.4628   10.6207   23.8869 H         1 UNK         0.0000 
     81 H81        13.3573    8.8329   22.4124 H         1 UNK         0.0000 
     82 H82         7.5619    0.9515   19.7954 H         1 UNK         0.0000 
     83 H83         4.7262    2.6838   20.3515 H         1 UNK         0.0000 
     84 H84         3.5117    1.4077   20.2139 H         1 UNK         0.0000 
     85 H85         9.3252   -1.6870   20.1534 H         1 UNK         0.0000 
     86 H86        10.9623    4.5405   21.4399 H         1 UNK         0.0000 
@<TRIPOS>BOND
     1    1   34 1    
     2    1   35 1    
     3    1   46 1    
     4    1   47 1    
     5    2    7 1    
     6    2   10 1    
     7    2   36 1    
     8    2   48 1    
     9    3   29 1    
    10    3   36 am   BACKBONE|DICT|INTERRES
    11    3   40 2    
    12    4    9 am   BACKBONE|DICT|INTERRES
    13    4   35 1    
    14    4   49 1    
    15    5    6 am   BACKBONE|DICT|INTERRES
    16    5    8 1    
    17    5   39 2    
    18    6   29 1    
    19    6   50 1    
    20    7   34 1    
    21    7   51 1    
    22    7   52 1    
    23    8   23 1    
    24    8   38 1    
    25    8   53 1    
    26    9   34 1    
    27    9   42 2    
    28   10   11 1    
    29   10   41 2    
    30   11   37 2    
    31   11   45 1    
    32   12   13 ar   
    33   12   14 ar   
    34   12   37 1    
    35   13   17 ar   
    36   13   45 1    
    37   14   15 ar   
    38   14   54 1    
    39   15   16 ar   
    40   15   55 1    
    41   16   17 ar   
    42   16   56 1    
    43   17   57 1    
    44   18   19 1    
    45   18   29 1    
    46   18   58 1    
    47   18   59 1    
    48   19   20 1    
    49   19   21 1    
    50   19   60 1    
    51   20   61 1    
    52   20   62 1    
    53   20   63 1    
    54   21   64 1    
    55   21   65 1    
    56   21   66 1    
    57   22   38 am   BACKBONE|DICT|INTERRES
    58   22   43 1    
    59   22   44 2    
    60   23   24 1    
    61   23   25 1    
    62   23   67 1    
    63   24   68 1    
    64   24   69 1    
    65   24   70 1    
    66   25   71 1    
    67   25   72 1    
    68   25   73 1    
    69   26   27 1    
    70   26   43 1    
    71   26   74 1    
    72   26   75 1    
    73   27   28 ar   
    74   27   33 ar   
    75   28   30 ar   
    76   28   76 1    
    77   29   77 1    
    78   30   31 ar   
    79   30   78 1    
    80   31   32 ar   
    81   31   79 1    
    82   32   33 ar   
    83   32   80 1    
    84   33   81 1    
    85   34   82 1    
    86   35   83 1    
    87   35   84 1    
    88   36   85 1    
    89   38   86 1    
@<TRIPOS>SUBSTRUCTURE
     1 UNK         1 GROUP             0       ****    0 ROOT    
