@<TRIPOS>MOLECULE
7KX5_ligand1
65   69    1
SMALL
USER_CHARGES


@<TRIPOS>ATOM
      1 C1          5.8185    0.5881   19.7201 C.ar      1 UNK         0.0000 
      2 C2          6.6414    0.3214   18.5985 C.ar      1 UNK         0.0000 
      3 C3          5.1279    1.1623   17.0927 C.ar      1 UNK         0.0000 
      4 C4          4.1814    1.3525   18.1009 C.ar      1 UNK         0.0000 
      5 C5          8.2482    3.4371   22.3474 C.3       1 UNK         0.0000 
      6 C6          7.6652    4.6319   23.1108 C.3       1 UNK         0.0000 
      7 C7          9.4515    2.8170   23.0556 C.ar      1 UNK         0.0000 
      8 C8         10.7142    2.7835   22.4244 C.ar      1 UNK         0.0000 
      9 C9         11.7997    2.1180   23.0245 C.ar      1 UNK         0.0000 
     10 C10        11.6288    1.4889   24.2696 C.ar      1 UNK         0.0000 
     11 C11        10.3826    1.5425   24.9212 C.ar      1 UNK         0.0000 
     12 C12         9.2953    2.1971   24.3142 C.ar      1 UNK         0.0000 
     13 C13         9.0260   -1.3396   24.2247 C.ar      1 UNK         0.0000 
     14 C14        10.1903   -1.7824   23.5551 C.ar      1 UNK         0.0000 
     15 C15        11.3880   -2.1412   24.3157 C.ar      1 UNK         0.0000 
     16 C16        12.6840   -1.8772   23.8206 C.ar      1 UNK         0.0000 
     17 C17        13.8146   -2.2393   24.5704 C.ar      1 UNK         0.0000 
     18 C18        13.6652   -2.8602   25.8215 C.ar      1 UNK         0.0000 
     19 O19         5.0281   -2.0555   20.1471 O.2       1 UNK         0.0000 
     20 C20         5.9252   -2.1476   20.9774 C.2       1 UNK         0.0000 
     21 C21         6.2188   -3.5336   21.4507 C.2       1 UNK         0.0000 
     22 C22         6.9790   -4.0952   22.4521 C.2       1 UNK         0.0000 
     23 C23         6.8348   -5.5018   22.3514 C.2       1 UNK         0.0000 
     24 C24         5.9280   -5.7043   21.3590 C.2       1 UNK         0.0000 
     25 O25         5.5677   -4.5327   20.7906 O.3       1 UNK         0.0000 
     26 N26         6.6446   -1.0652   21.3967 N.am      1 UNK         0.0000 
     27 C27         6.2522    0.3534   21.1348 C.3       1 UNK         0.0000 
     28 N28         6.3423    0.6627   17.3341 N.ar      1 UNK         0.0000 
     29 C29         4.5367    1.0945   19.4324 C.ar      1 UNK         0.0000 
     30 C30         7.3975    1.4003   21.2589 C.2       1 UNK         0.0000 
     31 N31         7.2092    2.4419   22.0835 N.am      1 UNK         0.0000 
     32 O32         8.4464    1.2695   20.6228 O.2       1 UNK         0.0000 
     33 C33         7.8347   -1.2632   22.1218 C.ar      1 UNK         0.0000 
     34 C34         7.8526   -1.0575   23.5120 C.ar      1 UNK         0.0000 
     35 C35        12.3802   -3.1162   26.3224 C.ar      1 UNK         0.0000 
     36 C36        11.2508   -2.7732   25.5684 C.ar      1 UNK         0.0000 
     37 C37        10.1759   -1.9011   22.1502 C.ar      1 UNK         0.0000 
     38 C38         8.9982   -1.6550   21.4350 C.ar      1 UNK         0.0000 
     39 H39         7.6089   -0.1359   18.7293 H         1 UNK         0.0000 
     40 H40         4.9038    1.4136   16.0720 H         1 UNK         0.0000 
     41 H41         3.2005    1.6944   17.8395 H         1 UNK         0.0000 
     42 H42         8.5760    3.8173   21.3830 H         1 UNK         0.0000 
     43 H43         6.8401    5.0820   22.5597 H         1 UNK         0.0000 
     44 H44         7.2899    4.3388   24.0915 H         1 UNK         0.0000 
     45 H45         8.4206    5.4034   23.2597 H         1 UNK         0.0000 
     46 H46        10.8571    3.2325   21.4580 H         1 UNK         0.0000 
     47 H47        12.7552    2.0775   22.5250 H         1 UNK         0.0000 
     48 H48        12.4558    0.9665   24.7267 H         1 UNK         0.0000 
     49 H49        10.2542    1.0616   25.8806 H         1 UNK         0.0000 
     50 H50         8.3346    2.2025   24.8076 H         1 UNK         0.0000 
     51 H51         9.0221   -1.2150   25.2970 H         1 UNK         0.0000 
     52 H52        12.8203   -1.3913   22.8658 H         1 UNK         0.0000 
     53 H53        14.7969   -2.0403   24.1892 H         1 UNK         0.0000 
     54 H54        14.5267   -3.1281   26.4106 H         1 UNK         0.0000 
     55 H55         7.6017   -3.5940   23.1712 H         1 UNK         0.0000 
     56 H56         7.3146   -6.2622   22.9409 H         1 UNK         0.0000 
     57 H57         5.4463   -6.5643   20.9401 H         1 UNK         0.0000 
     58 H58         5.4541    0.6087   21.8347 H         1 UNK         0.0000 
     59 H59         3.8281    1.2822   20.2245 H         1 UNK         0.0000 
     60 H60         6.3389    2.5214   22.5886 H         1 UNK         0.0000 
     61 H61         6.9636   -0.7319   24.0320 H         1 UNK         0.0000 
     62 H62        12.2469   -3.5521   27.2975 H         1 UNK         0.0000 
     63 H63        10.2737   -2.9971   25.9693 H         1 UNK         0.0000 
     64 H64        11.0563   -2.2218   21.6143 H         1 UNK         0.0000 
     65 H65         8.9844   -1.7727   20.3643 H         1 UNK         0.0000 
@<TRIPOS>BOND
     1    1    2 ar   
     2    1   27 1    
     3    1   29 ar   
     4    2   28 ar   
     5    2   39 1    
     6    3    4 ar   
     7    3   28 ar   
     8    3   40 1    
     9    4   29 ar   
    10    4   41 1    
    11    5    6 1    
    12    5    7 1    
    13    5   31 1    
    14    5   42 1    
    15    6   43 1    
    16    6   44 1    
    17    6   45 1    
    18    7    8 ar   
    19    7   12 ar   
    20    8    9 ar   
    21    8   46 1    
    22    9   10 ar   
    23    9   47 1    
    24   10   11 ar   
    25   10   48 1    
    26   11   12 ar   
    27   11   49 1    
    28   12   50 1    
    29   13   14 ar   
    30   13   34 ar   
    31   13   51 1    
    32   14   15 1    
    33   14   37 ar   
    34   15   16 ar   
    35   15   36 ar   
    36   16   17 ar   
    37   16   52 1    
    38   17   18 ar   
    39   17   53 1    
    40   18   35 ar   
    41   18   54 1    
    42   19   20 2    
    43   20   21 1    
    44   20   26 am   BACKBONE|DICT|INTERRES
    45   21   22 2    
    46   21   25 1    
    47   22   23 1    
    48   22   55 1    
    49   23   24 2    
    50   23   56 1    
    51   24   25 1    
    52   24   57 1    
    53   26   27 1    
    54   26   33 1    
    55   27   30 1    
    56   27   58 1    
    57   29   59 1    
    58   30   31 am   BACKBONE|DICT|INTERRES
    59   30   32 2    
    60   31   60 1    
    61   33   34 ar   
    62   33   38 ar   
    63   34   61 1    
    64   35   36 ar   
    65   35   62 1    
    66   36   63 1    
    67   37   38 ar   
    68   37   64 1    
    69   38   65 1    
@<TRIPOS>SUBSTRUCTURE
     1 UNK         1 GROUP             0       ****    0 ROOT    
