@<TRIPOS>MOLECULE
7L0D_ligand1
63   65    1
SMALL
USER_CHARGES


@<TRIPOS>ATOM
      1 O1          5.2246   -2.0664   21.8862 O.2       1 UNK         0.0000 
      2 C2          6.4018   -2.2559   22.1864 C.2       1 UNK         0.0000 
      3 C3          6.8024   -3.6749   22.3261 C.2       1 UNK         0.0000 
      4 C4          7.7675   -4.3363   23.0411 C.2       1 UNK         0.0000 
      5 C5          7.5570   -5.7253   22.8288 C.2       1 UNK         0.0000 
      6 C6          6.4591   -5.8224   22.0288 C.2       1 UNK         0.0000 
      7 O7          5.9961   -4.5901   21.7087 O.3       1 UNK         0.0000 
      8 N8          7.2795   -1.2212   22.3525 N.am      1 UNK         0.0000 
      9 C9          8.5693   -1.3917   22.9006 C.ar      1 UNK         0.0000 
     10 C10         9.6706   -1.6281   22.0599 C.ar      1 UNK         0.0000 
     11 C11        10.9670   -1.6906   22.6002 C.ar      1 UNK         0.0000 
     12 C12        11.1719   -1.5257   23.9914 C.ar      1 UNK         0.0000 
     13 C13        12.5577   -1.6197   24.6372 C.3       1 UNK         0.0000 
     14 C14        12.8721   -0.3058   25.3813 C.3       1 UNK         0.0000 
     15 C15        12.5473   -2.7964   25.6322 C.3       1 UNK         0.0000 
     16 C16        13.6919   -1.8457   23.6157 C.3       1 UNK         0.0000 
     17 C17        10.0494   -1.2923   24.8183 C.ar      1 UNK         0.0000 
     18 C18         8.7553   -1.2208   24.2828 C.ar      1 UNK         0.0000 
     19 C19         6.8159    0.1755   22.1395 C.3       1 UNK         0.0000 
     20 C20         7.8316    1.3334   22.3077 C.2       1 UNK         0.0000 
     21 N21         7.5813    2.1815   23.3223 N.am      1 UNK         0.0000 
     22 C22         8.3265    3.3837   23.7081 C.3       1 UNK         0.0000 
     23 C23         9.8309    3.0823   23.8908 C.3       1 UNK         0.0000 
     24 C24         8.1188    4.4849   22.6532 C.3       1 UNK         0.0000 
     25 C25         7.7454    3.8675   25.0472 C.3       1 UNK         0.0000 
     26 O26         8.7776    1.4690   21.5292 O.2       1 UNK         0.0000 
     27 C27         6.3537    0.3332   20.7342 C.ar      1 UNK         0.0000 
     28 C28         5.0519    0.7967   20.5001 C.ar      1 UNK         0.0000 
     29 C29         4.5554    0.7897   19.1990 C.ar      1 UNK         0.0000 
     30 C30         5.3937    0.3902   18.1443 C.ar      1 UNK         0.0000 
     31 N31         6.6634   -0.0086   18.3317 N.ar      1 UNK         0.0000 
     32 C32         7.1159   -0.0497   19.5997 C.ar      1 UNK         0.0000 
     33 H33         8.5326   -3.8942   23.6586 H         1 UNK         0.0000 
     34 H34         8.1267   -6.5492   23.2287 H         1 UNK         0.0000 
     35 H35         5.8915   -6.6405   21.6210 H         1 UNK         0.0000 
     36 H36         9.5172   -1.7399   21.0002 H         1 UNK         0.0000 
     37 H37        11.7851   -1.8709   21.9196 H         1 UNK         0.0000 
     38 H38        13.8470   -0.3629   25.8622 H         1 UNK         0.0000 
     39 H39        12.8895    0.5439   24.6972 H         1 UNK         0.0000 
     40 H40        12.1460   -0.0821   26.1627 H         1 UNK         0.0000 
     41 H41        13.5386   -2.9967   26.0391 H         1 UNK         0.0000 
     42 H42        11.8770   -2.6134   26.4698 H         1 UNK         0.0000 
     43 H43        12.1805   -3.7034   25.1583 H         1 UNK         0.0000 
     44 H44        14.6492   -1.9547   24.1239 H         1 UNK         0.0000 
     45 H45        13.5436   -2.7518   23.0335 H         1 UNK         0.0000 
     46 H46        13.7853   -1.0109   22.9195 H         1 UNK         0.0000 
     47 H47        10.1668   -1.1626   25.8804 H         1 UNK         0.0000 
     48 H48         7.9136   -1.0217   24.9284 H         1 UNK         0.0000 
     49 H49         5.9938    0.3478   22.8380 H         1 UNK         0.0000 
     50 H50         6.7738    1.9744   23.8918 H         1 UNK         0.0000 
     51 H51        10.3647    3.9731   24.2178 H         1 UNK         0.0000 
     52 H52         9.9948    2.3040   24.6366 H         1 UNK         0.0000 
     53 H53        10.3173    2.7678   22.9691 H         1 UNK         0.0000 
     54 H54         8.6167    5.4115   22.9408 H         1 UNK         0.0000 
     55 H55         8.5307    4.1832   21.6961 H         1 UNK         0.0000 
     56 H56         7.0615    4.7061   22.5049 H         1 UNK         0.0000 
     57 H57         8.2351    4.7813   25.3841 H         1 UNK         0.0000 
     58 H58         6.6787    4.0799   24.9674 H         1 UNK         0.0000 
     59 H59         7.8750    3.1193   25.8307 H         1 UNK         0.0000 
     60 H60         4.4145    1.1006   21.3158 H         1 UNK         0.0000 
     61 H61         3.5361    1.0898   19.0351 H         1 UNK         0.0000 
     62 H62         5.0328    0.3913   17.1283 H         1 UNK         0.0000 
     63 H63         8.1223   -0.4210   19.7156 H         1 UNK         0.0000 
@<TRIPOS>BOND
     1    1    2 2    
     2    2    3 1    
     3    2    8 am   BACKBONE|DICT|INTERRES
     4    3    4 2    
     5    3    7 1    
     6    4    5 1    
     7    4   33 1    
     8    5    6 2    
     9    5   34 1    
    10    6    7 1    
    11    6   35 1    
    12    8    9 1    
    13    8   19 1    
    14    9   10 ar   
    15    9   18 ar   
    16   10   11 ar   
    17   10   36 1    
    18   11   12 ar   
    19   11   37 1    
    20   12   13 1    
    21   12   17 ar   
    22   13   14 1    
    23   13   15 1    
    24   13   16 1    
    25   14   38 1    
    26   14   39 1    
    27   14   40 1    
    28   15   41 1    
    29   15   42 1    
    30   15   43 1    
    31   16   44 1    
    32   16   45 1    
    33   16   46 1    
    34   17   18 ar   
    35   17   47 1    
    36   18   48 1    
    37   19   20 1    
    38   19   27 1    
    39   19   49 1    
    40   20   21 am   BACKBONE|DICT|INTERRES
    41   20   26 2    
    42   21   22 1    
    43   21   50 1    
    44   22   23 1    
    45   22   24 1    
    46   22   25 1    
    47   23   51 1    
    48   23   52 1    
    49   23   53 1    
    50   24   54 1    
    51   24   55 1    
    52   24   56 1    
    53   25   57 1    
    54   25   58 1    
    55   25   59 1    
    56   27   28 ar   
    57   27   32 ar   
    58   28   29 ar   
    59   28   60 1    
    60   29   30 ar   
    61   29   61 1    
    62   30   31 ar   
    63   30   62 1    
    64   31   32 ar   
    65   32   63 1    
@<TRIPOS>SUBSTRUCTURE
     1 UNK         1 GROUP             0       ****    0 ROOT    
