@<TRIPOS>MOLECULE
7L10_ligand1
42   45    1
SMALL
USER_CHARGES


@<TRIPOS>ATOM
      1 C1         13.0631   -1.1070   23.1773 C.ar      1 UNK         0.0000 
      2 C2         11.7576   -1.5327   22.8755 C.ar      1 UNK         0.0000 
      3 C3          9.3377   -1.0451   22.4925 C.ar      1 UNK         0.0000 
      4 C4         10.9713    0.7661   23.0942 C.ar      1 UNK         0.0000 
      5 C5          8.8323   -2.1799   23.0343 C.ar      1 UNK         0.0000 
      6 C6          6.6130   -0.3107   20.0690 C.ar      1 UNK         0.0000 
      7 C7          6.9335   -3.8731   23.4001 C.ar      1 UNK         0.0000 
      8 C8          5.3225    0.1676   20.3567 C.ar      1 UNK         0.0000 
      9 C9          4.5841    0.7641   19.3223 C.ar      1 UNK         0.0000 
     10 C10         5.1659    0.8406   18.0420 C.ar      1 UNK         0.0000 
     11 C11         7.1155   -0.1545   18.7598 C.ar      1 UNK         0.0000 
     12 C12         7.5263   -2.7138   22.6770 C.ar      1 UNK         0.0000 
     13 C13         6.1509   -4.8992   22.7882 C.ar      1 UNK         0.0000 
     14 C14         5.5706   -5.9103   23.5831 C.ar      1 UNK         0.0000 
     15 C15         5.7734   -5.9323   24.9729 C.ar      1 UNK         0.0000 
     16 C16         6.5784   -4.9542   25.5782 C.ar      1 UNK         0.0000 
     17 C17         7.1544   -3.9361   24.7955 C.ar      1 UNK         0.0000 
     18 C18         5.9572   -5.0053   21.3517 C.1       1 UNK         0.0000 
     19 C19        13.3269    0.2513   23.4366 C.ar      1 UNK         0.0000 
     20 C20        10.7045   -0.5982   22.8322 C.ar      1 UNK         0.0000 
     21 C21        12.2814    1.1927   23.3745 C.ar      1 UNK         0.0000 
     22 C22         8.5729   -0.3365   21.4554 C.ar      1 UNK         0.0000 
     23 C23         6.8684   -2.0439   21.7113 C.ar      1 UNK         0.0000 
     24 N24         7.3977   -0.9093   21.0792 N.pl3     1 UNK         0.0000 
     25 N25         6.4060    0.4052   17.7651 N.ar      1 UNK         0.0000 
     26 N26         5.8027   -5.0893   20.2112 N.1       1 UNK         0.0000 
     27 O27         8.9499    0.7232   20.9499 O.2       1 UNK         0.0000 
     28 Cl28       14.3359   -2.2642   23.2234 Cl        1 UNK         0.0000 
     29 Cl29       12.6018    2.8699   23.6115 Cl        1 UNK         0.0000 
     30 H30        11.5763   -2.5756   22.6621 H         1 UNK         0.0000 
     31 H31        10.1781    1.4980   23.0616 H         1 UNK         0.0000 
     32 H32         9.4299   -2.7247   23.7518 H         1 UNK         0.0000 
     33 H33         4.9180    0.0844   21.3536 H         1 UNK         0.0000 
     34 H34         3.5918    1.1435   19.5108 H         1 UNK         0.0000 
     35 H35         4.6459    1.2591   17.1994 H         1 UNK         0.0000 
     36 H36         8.1101   -0.4891   18.5030 H         1 UNK         0.0000 
     37 H37         4.9703   -6.6866   23.1307 H         1 UNK         0.0000 
     38 H38         5.3300   -6.7119   25.5756 H         1 UNK         0.0000 
     39 H39         6.7436   -4.9774   26.6449 H         1 UNK         0.0000 
     40 H40         7.7405   -3.1787   25.2932 H         1 UNK         0.0000 
     41 H41        14.3339    0.5753   23.6541 H         1 UNK         0.0000 
     42 H42         5.8768   -2.3103   21.3754 H         1 UNK         0.0000 
@<TRIPOS>BOND
     1    1    2 ar   
     2    1   19 ar   
     3    1   28 1    
     4    2   20 ar   
     5    2   30 1    
     6    3    5 ar   
     7    3   20 1    
     8    3   22 ar   
     9    4   20 ar   
    10    4   21 ar   
    11    4   31 1    
    12    5   12 ar   
    13    5   32 1    
    14    6    8 ar   
    15    6   11 ar   
    16    6   24 1    
    17    7   12 1    
    18    7   13 ar   
    19    7   17 ar   
    20    8    9 ar   
    21    8   33 1    
    22    9   10 ar   
    23    9   34 1    
    24   10   25 ar   
    25   10   35 1    
    26   11   25 ar   
    27   11   36 1    
    28   12   23 ar   
    29   13   14 ar   
    30   13   18 1    
    31   14   15 ar   
    32   14   37 1    
    33   15   16 ar   
    34   15   38 1    
    35   16   17 ar   
    36   16   39 1    
    37   17   40 1    
    38   18   26 3    
    39   19   21 ar   
    40   19   41 1    
    41   21   29 1    
    42   22   24 ar   
    43   22   27 2    
    44   23   24 ar   
    45   23   42 1    
@<TRIPOS>SUBSTRUCTURE
     1 UNK         1 GROUP             0       ****    0 ROOT    
