@<TRIPOS>MOLECULE
7L11_ligand1
52   55    1
SMALL
USER_CHARGES


@<TRIPOS>ATOM
      1 C1          7.3228   -2.2376   21.9079 C.ar      1 UNK         0.0000 
      2 C2          7.9945   -2.9236   22.8510 C.ar      1 UNK         0.0000 
      3 C3          7.4180   -4.0869   23.5754 C.ar      1 UNK         0.0000 
      4 C4          6.6263   -5.1050   22.9661 C.ar      1 UNK         0.0000 
      5 C5          6.3840   -5.1781   21.5340 C.1       1 UNK         0.0000 
      6 C6          6.0777   -6.1370   23.7574 C.ar      1 UNK         0.0000 
      7 O7          9.4209    0.5014   21.1090 O.2       1 UNK         0.0000 
      8 C8          9.0462   -0.5564   21.6194 C.ar      1 UNK         0.0000 
      9 C9          7.0259   -0.4624   20.3142 C.ar      1 UNK         0.0000 
     10 C10         7.4520   -0.3143   18.9776 C.ar      1 UNK         0.0000 
     11 C11         5.5417    0.8503   18.4032 C.ar      1 UNK         0.0000 
     12 C12         5.0272    0.7590   19.7134 C.ar      1 UNK         0.0000 
     13 C13         5.7774    0.0772   20.6832 C.ar      1 UNK         0.0000 
     14 O14        13.2137    2.2138   23.6428 O.3       1 UNK         0.0000 
     15 C15         6.3121   -6.1791   25.1408 C.ar      1 UNK         0.0000 
     16 C16         7.1177   -5.2010   25.7439 C.ar      1 UNK         0.0000 
     17 C17         7.6705   -4.1679   24.9645 C.ar      1 UNK         0.0000 
     18 C18         9.3127   -2.4098   23.1830 C.ar      1 UNK         0.0000 
     19 C19         9.8305   -1.2850   22.6336 C.ar      1 UNK         0.0000 
     20 C20        11.2124   -0.8710   22.9762 C.ar      1 UNK         0.0000 
     21 C21        12.2254   -1.8392   23.1413 C.ar      1 UNK         0.0000 
     22 C22        13.5254   -1.4482   23.5057 C.ar      1 UNK         0.0000 
     23 C23        13.8279   -0.0862   23.6852 C.ar      1 UNK         0.0000 
     24 C24        12.8392    0.8979   23.4977 C.ar      1 UNK         0.0000 
     25 C25        12.3639    3.2038   23.0790 C.3       1 UNK         0.0000 
     26 C26        13.0656    4.5620   23.1428 C.3       1 UNK         0.0000 
     27 C27        14.3613    4.5949   22.3307 C.3       1 UNK         0.0000 
     28 C28        11.5241    0.4921   23.1723 C.ar      1 UNK         0.0000 
     29 N29         7.8471   -1.1041   21.2739 N.pl3     1 UNK         0.0000 
     30 N30         6.7260    0.3236   18.0394 N.ar      1 UNK         0.0000 
     31 N31         6.1908   -5.2362   20.3988 N.1       1 UNK         0.0000 
     32 Cl32       14.7435   -2.6409   23.7478 Cl        1 UNK         0.0000 
     33 H33         6.3208   -2.4890   21.5922 H         1 UNK         0.0000 
     34 H34         5.4753   -6.9104   23.3044 H         1 UNK         0.0000 
     35 H35         8.4036   -0.7122   18.6509 H         1 UNK         0.0000 
     36 H36         5.0022    1.3499   17.6143 H         1 UNK         0.0000 
     37 H37         4.0742    1.1867   19.9835 H         1 UNK         0.0000 
     38 H38         5.4076   -0.0118   21.6940 H         1 UNK         0.0000 
     39 H39         5.8912   -6.9746   25.7396 H         1 UNK         0.0000 
     40 H40         7.3089   -5.2392   26.8059 H         1 UNK         0.0000 
     41 H41         8.2701   -3.4204   25.4623 H         1 UNK         0.0000 
     42 H42         9.9066   -2.9636   23.8958 H         1 UNK         0.0000 
     43 H43        12.0136   -2.8879   22.9987 H         1 UNK         0.0000 
     44 H44        14.8318    0.2069   23.9405 H         1 UNK         0.0000 
     45 H45        11.4274    3.2575   23.6348 H         1 UNK         0.0000 
     46 H46        12.1297    2.9561   22.0434 H         1 UNK         0.0000 
     47 H47        13.2765    4.8197   24.1801 H         1 UNK         0.0000 
     48 H48        12.3929    5.3278   22.7630 H         1 UNK         0.0000 
     49 H49        14.7775    5.6014   22.3105 H         1 UNK         0.0000 
     50 H50        15.1044    3.9253   22.7619 H         1 UNK         0.0000 
     51 H51        14.1891    4.2822   21.3015 H         1 UNK         0.0000 
     52 H52        10.7405    1.2257   23.0755 H         1 UNK         0.0000 
@<TRIPOS>BOND
     1    1    2 ar   
     2    1   29 ar   
     3    1   33 1    
     4    2    3 1    
     5    2   18 ar   
     6    3    4 ar   
     7    3   17 ar   
     8    4    5 1    
     9    4    6 ar   
    10    5   31 3    
    11    6   15 ar   
    12    6   34 1    
    13    7    8 2    
    14    8   19 ar   
    15    8   29 ar   
    16    9   10 ar   
    17    9   13 ar   
    18    9   29 1    
    19   10   30 ar   
    20   10   35 1    
    21   11   12 ar   
    22   11   30 ar   
    23   11   36 1    
    24   12   13 ar   
    25   12   37 1    
    26   13   38 1    
    27   14   24 1    
    28   14   25 1    
    29   15   16 ar   
    30   15   39 1    
    31   16   17 ar   
    32   16   40 1    
    33   17   41 1    
    34   18   19 ar   
    35   18   42 1    
    36   19   20 1    
    37   20   21 ar   
    38   20   28 ar   
    39   21   22 ar   
    40   21   43 1    
    41   22   23 ar   
    42   22   32 1    
    43   23   24 ar   
    44   23   44 1    
    45   24   28 ar   
    46   25   26 1    
    47   25   45 1    
    48   25   46 1    
    49   26   27 1    
    50   26   47 1    
    51   26   48 1    
    52   27   49 1    
    53   27   50 1    
    54   27   51 1    
    55   28   52 1    
@<TRIPOS>SUBSTRUCTURE
     1 UNK         1 GROUP             0       ****    0 ROOT    
