@<TRIPOS>MOLECULE
7L12_ligand1
55   59    1
SMALL
USER_CHARGES


@<TRIPOS>ATOM
      1 C1          8.6162   -0.2800   21.3002 C.ar      1 UNK         0.0000 
      2 C2          8.8441   -2.2881   22.6631 C.ar      1 UNK         0.0000 
      3 C3          9.3617   -1.0978   22.2714 C.ar      1 UNK         0.0000 
      4 C4         10.7069   -0.6835   22.7333 C.ar      1 UNK         0.0000 
      5 C5         11.7410   -1.6348   22.8527 C.ar      1 UNK         0.0000 
      6 C6          6.6876   -0.1073   19.8891 C.ar      1 UNK         0.0000 
      7 C7         13.0028   -1.2475   23.3322 C.ar      1 UNK         0.0000 
      8 C8         13.2519    0.0959   23.6525 C.ar      1 UNK         0.0000 
      9 C9         12.2432    1.0682   23.5184 C.ar      1 UNK         0.0000 
     10 C10        11.6819    3.4022   23.4428 C.3       1 UNK         0.0000 
     11 C11        12.3019    4.7539   23.7174 C.ar      1 UNK         0.0000 
     12 C12        10.9598    0.6621   23.0895 C.ar      1 UNK         0.0000 
     13 C13         7.1737    0.0780   18.5785 C.ar      1 UNK         0.0000 
     14 C14         5.2979    1.2695   17.9719 C.ar      1 UNK         0.0000 
     15 C15         4.7313    1.1351   19.2579 C.ar      1 UNK         0.0000 
     16 C16         5.4374    0.4293   20.2376 C.ar      1 UNK         0.0000 
     17 C17         6.9122   -2.0032   21.3190 C.ar      1 UNK         0.0000 
     18 C18         7.5485   -2.7743   22.2138 C.ar      1 UNK         0.0000 
     19 C19         6.9853   -4.0435   22.6711 C.ar      1 UNK         0.0000 
     20 C20         7.2038   -4.4499   23.9517 C.ar      1 UNK         0.0000 
     21 C21         6.2523   -4.9615   21.7719 C.ar      1 UNK         0.0000 
     22 C22         5.9790   -6.5054   23.6863 C.ar      1 UNK         0.0000 
     23 C23        13.4533    5.1510   23.0058 C.ar      1 UNK         0.0000 
     24 C24        14.0880    6.3659   23.3184 C.ar      1 UNK         0.0000 
     25 C25        13.5912    7.1758   24.3592 C.ar      1 UNK         0.0000 
     26 C26        12.4290    6.7926   25.0542 C.ar      1 UNK         0.0000 
     27 C27        11.7705    5.5946   24.7173 C.ar      1 UNK         0.0000 
     28 N28         7.4485   -0.8041   20.8442 N.pl3     1 UNK         0.0000 
     29 N29         6.4941    0.7549   17.6351 N.ar      1 UNK         0.0000 
     30 N30         5.7936   -6.1451   22.3575 N.pl3     1 UNK         0.0000 
     31 N31         6.7184   -5.6278   24.4686 N.pl3     1 UNK         0.0000 
     32 O32         8.9998    0.8272   20.9153 O.2       1 UNK         0.0000 
     33 O33        12.5767    2.3676   23.8248 O.3       1 UNK         0.0000 
     34 O34         6.0185   -4.7728   20.5791 O.2       1 UNK         0.0000 
     35 O35         5.5136   -7.5425   24.1494 O.2       1 UNK         0.0000 
     36 Cl36       14.2375   -2.4292   23.5396 Cl        1 UNK         0.0000 
     37 H37         9.4143   -2.9071   23.3398 H         1 UNK         0.0000 
     38 H38        11.5698   -2.6698   22.5983 H         1 UNK         0.0000 
     39 H39        14.2334    0.3833   23.9860 H         1 UNK         0.0000 
     40 H40        11.4645    3.3233   22.3776 H         1 UNK         0.0000 
     41 H41        10.7423    3.3158   23.9908 H         1 UNK         0.0000 
     42 H42        10.1578    1.3788   23.0340 H         1 UNK         0.0000 
     43 H43         8.1330   -0.3218   18.2804 H         1 UNK         0.0000 
     44 H44         4.7977    1.7942   17.1753 H         1 UNK         0.0000 
     45 H45         3.7679    1.5367   19.5172 H         1 UNK         0.0000 
     46 H46         5.0271    0.3141   21.2307 H         1 UNK         0.0000 
     47 H47         5.9482   -2.2518   20.8960 H         1 UNK         0.0000 
     48 H48         7.7532   -3.8219   24.6364 H         1 UNK         0.0000 
     49 H49        13.8581    4.5139   22.2323 H         1 UNK         0.0000 
     50 H50        14.9701    6.6682   22.7718 H         1 UNK         0.0000 
     51 H51        14.0937    8.0973   24.6105 H         1 UNK         0.0000 
     52 H52        12.0375    7.4218   25.8400 H         1 UNK         0.0000 
     53 H53        10.8817    5.3043   25.2578 H         1 UNK         0.0000 
     54 H54         5.2747   -6.7848   21.7747 H         1 UNK         0.0000 
     55 H55         6.8909   -5.8753   25.4330 H         1 UNK         0.0000 
@<TRIPOS>BOND
     1    1    3 ar   
     2    1   28 ar   
     3    1   32 2    
     4    2    3 ar   
     5    2   18 ar   
     6    2   37 1    
     7    3    4 1    
     8    4    5 ar   
     9    4   12 ar   
    10    5    7 ar   
    11    5   38 1    
    12    6   13 ar   
    13    6   16 ar   
    14    6   28 1    
    15    7    8 ar   
    16    7   36 1    
    17    8    9 ar   
    18    8   39 1    
    19    9   12 ar   
    20    9   33 1    
    21   10   11 1    
    22   10   33 1    
    23   10   40 1    
    24   10   41 1    
    25   11   23 ar   
    26   11   27 ar   
    27   12   42 1    
    28   13   29 ar   
    29   13   43 1    
    30   14   15 ar   
    31   14   29 ar   
    32   14   44 1    
    33   15   16 ar   
    34   15   45 1    
    35   16   46 1    
    36   17   18 ar   
    37   17   28 ar   
    38   17   47 1    
    39   18   19 1    
    40   19   20 ar   
    41   19   21 ar   
    42   20   31 ar   
    43   20   48 1    
    44   21   30 ar   
    45   21   34 2    
    46   22   30 ar   
    47   22   31 ar   
    48   22   35 2    
    49   23   24 ar   
    50   23   49 1    
    51   24   25 ar   
    52   24   50 1    
    53   25   26 ar   
    54   25   51 1    
    55   26   27 ar   
    56   26   52 1    
    57   27   53 1    
    58   30   54 1    
    59   31   55 1    
@<TRIPOS>SUBSTRUCTURE
     1 UNK         1 GROUP             0       ****    0 ROOT    
