@<TRIPOS>MOLECULE
7L14_ligand1
53   57    1
SMALL
USER_CHARGES


@<TRIPOS>ATOM
      1 C1          7.4932   -4.1685   23.6627 C.ar      1 UNK         0.0000 
      2 C2          7.4649   -0.3849   19.0961 C.ar      1 UNK         0.0000 
      3 C3          5.4752    0.6114   18.4851 C.ar      1 UNK         0.0000 
      4 N4          7.8732   -1.1426   21.4031 N.pl3     1 UNK         0.0000 
      5 C5          7.0447   -0.5240   20.4367 C.ar      1 UNK         0.0000 
      6 C6         12.2723   -1.9351   23.1570 C.ar      1 UNK         0.0000 
      7 C7         13.5937   -1.5743   23.4638 C.ar      1 UNK         0.0000 
      8 C8         13.9337   -0.2214   23.6154 C.ar      1 UNK         0.0000 
      9 C9         12.9604    0.7849   23.4809 C.ar      1 UNK         0.0000 
     10 C10        12.4432    3.1325   23.5575 C.3       1 UNK         0.0000 
     11 C11        13.1745    4.4441   23.7482 C.3       1 UNK         0.0000 
     12 C12        11.6218    0.4153   23.2139 C.ar      1 UNK         0.0000 
     13 C13         7.3588   -2.2842   22.0366 C.ar      1 UNK         0.0000 
     14 C14         6.1721   -6.2327   23.8176 C.ar      1 UNK         0.0000 
     15 C15         6.4360   -6.3127   25.1954 C.ar      1 UNK         0.0000 
     16 C16        11.2751   -0.9438   23.0265 C.ar      1 UNK         0.0000 
     17 C17         9.8796   -1.3386   22.7227 C.ar      1 UNK         0.0000 
     18 C18         7.2519   -5.3476   25.8066 C.ar      1 UNK         0.0000 
     19 C19         7.7821   -4.2905   25.0444 C.ar      1 UNK         0.0000 
     20 C20         9.3735   -2.4724   23.2666 C.ar      1 UNK         0.0000 
     21 C21         9.0732   -0.5940   21.7357 C.ar      1 UNK         0.0000 
     22 C22         6.6947   -5.1757   23.0445 C.ar      1 UNK         0.0000 
     23 C23         6.4242   -5.2178   21.6164 C.1       1 UNK         0.0000 
     24 C24        14.6079    4.5964   23.2807 C.3       1 UNK         0.0000 
     25 C25        13.5010    5.3166   22.5626 C.3       1 UNK         0.0000 
     26 C26         4.9765    0.5512   19.8016 C.ar      1 UNK         0.0000 
     27 C27         5.7760   -0.0324   20.7969 C.ar      1 UNK         0.0000 
     28 C28         8.0506   -2.9822   22.9533 C.ar      1 UNK         0.0000 
     29 N29         6.6970    0.1688   18.1376 N.ar      1 UNK         0.0000 
     30 N30         6.2069   -5.2509   20.4823 N.1       1 UNK         0.0000 
     31 O31         9.4329    0.4758   21.2388 O.2       1 UNK         0.0000 
     32 O32        13.3920    2.0810   23.6374 O.3       1 UNK         0.0000 
     33 Cl33       14.7960   -2.7881   23.6580 Cl        1 UNK         0.0000 
     34 H34         8.4375   -0.7338   18.7803 H         1 UNK         0.0000 
     35 H35         4.8856    1.0270   17.6819 H         1 UNK         0.0000 
     36 H36        12.0352   -2.9798   23.0185 H         1 UNK         0.0000 
     37 H37        14.9551    0.0507   23.8232 H         1 UNK         0.0000 
     38 H38        11.9520    3.1286   22.5839 H         1 UNK         0.0000 
     39 H39        11.6803    3.0322   24.3319 H         1 UNK         0.0000 
     40 H40        12.9317    4.9560   24.6771 H         1 UNK         0.0000 
     41 H41        10.8538    1.1691   23.1460 H         1 UNK         0.0000 
     42 H42         6.3507   -2.5335   21.7396 H         1 UNK         0.0000 
     43 H43         5.5721   -7.0011   23.3560 H         1 UNK         0.0000 
     44 H44         6.0320   -7.1273   25.7772 H         1 UNK         0.0000 
     45 H45         7.4719   -5.4178   26.8623 H         1 UNK         0.0000 
     46 H46         8.3955   -3.5590   25.5465 H         1 UNK         0.0000 
     47 H47         9.9825   -3.0423   23.9540 H         1 UNK         0.0000 
     48 H48        15.0852    3.7723   22.7556 H         1 UNK         0.0000 
     49 H49        15.2701    5.2083   23.8829 H         1 UNK         0.0000 
     50 H50        13.4659    6.3910   22.6958 H         1 UNK         0.0000 
     51 H51        13.1963    4.9459   21.5890 H         1 UNK         0.0000 
     52 H52         3.9953    0.9318   20.0434 H         1 UNK         0.0000 
     53 H53         5.4299   -0.1044   21.8157 H         1 UNK         0.0000 
@<TRIPOS>BOND
     1    1   19 ar   
     2    1   22 ar   
     3    1   28 1    
     4    2    5 ar   
     5    2   29 ar   
     6    2   34 1    
     7    3   26 ar   
     8    3   29 ar   
     9    3   35 1    
    10    4    5 1    
    11    4   13 ar   
    12    4   21 ar   
    13    5   27 ar   
    14    6    7 ar   
    15    6   16 ar   
    16    6   36 1    
    17    7    8 ar   
    18    7   33 1    
    19    8    9 ar   
    20    8   37 1    
    21    9   12 ar   
    22    9   32 1    
    23   10   11 1    
    24   10   32 1    
    25   10   38 1    
    26   10   39 1    
    27   11   24 1    
    28   11   25 1    
    29   11   40 1    
    30   12   16 ar   
    31   12   41 1    
    32   13   28 ar   
    33   13   42 1    
    34   14   15 ar   
    35   14   22 ar   
    36   14   43 1    
    37   15   18 ar   
    38   15   44 1    
    39   16   17 1    
    40   17   20 ar   
    41   17   21 ar   
    42   18   19 ar   
    43   18   45 1    
    44   19   46 1    
    45   20   28 ar   
    46   20   47 1    
    47   21   31 2    
    48   22   23 1    
    49   23   30 3    
    50   24   25 1    
    51   24   48 1    
    52   24   49 1    
    53   25   50 1    
    54   25   51 1    
    55   26   27 ar   
    56   26   52 1    
    57   27   53 1    
@<TRIPOS>SUBSTRUCTURE
     1 UNK         1 GROUP             0       ****    0 ROOT    
