@<TRIPOS>MOLECULE
7LCT_ligand1
61   62    1
SMALL
USER_CHARGES


@<TRIPOS>ATOM
      1 C1          6.6533    1.4729   18.7406 C.2       1 UNK         0.0000 
      2 C2         11.2068   -0.9558   23.6316 C.3       1 UNK         0.0000 
      3 C3         13.2957   -1.5676   22.3024 C.3       1 UNK         0.0000 
      4 C4          9.8619    2.2086   22.1804 C.2       1 UNK         0.0000 
      5 C5          9.1567    4.4570   22.5808 C.3       1 UNK         0.0000 
      6 C6          9.7577    5.6622   23.2759 C.ar      1 UNK         0.0000 
      7 C7         10.2930    8.0429   23.2742 C.ar      1 UNK         0.0000 
      8 C8         10.7018    6.7031   25.2738 C.ar      1 UNK         0.0000 
      9 C9          9.0441   -0.8842   22.2662 C.2       1 UNK         0.0000 
     10 C10         7.4431   -1.8727   20.6499 C.3       1 UNK         0.0000 
     11 C11         7.0907   -0.9933   19.4222 C.3       1 UNK         0.0000 
     12 C12         6.9282    0.4709   19.8428 C.3       1 UNK         0.0000 
     13 C13         5.7769    0.7137   20.8190 C.3       1 UNK         0.0000 
     14 C14         5.1796    2.0617   20.4456 C.3       1 UNK         0.0000 
     15 C15         7.2453   -3.3687   20.4211 C.2       1 UNK         0.0000 
     16 C16        10.4397   -0.2617   22.4751 C.3       1 UNK         0.0000 
     17 C17        12.1969   -2.0618   23.2496 C.3       1 UNK         0.0000 
     18 C18        12.8526   -2.6277   24.5208 C.3       1 UNK         0.0000 
     19 C19         7.6471    4.3600   22.8493 C.3       1 UNK         0.0000 
     20 C20         9.8066    6.9030   22.6073 C.ar      1 UNK         0.0000 
     21 C21        10.7284    7.9439   24.6105 C.ar      1 UNK         0.0000 
     22 C22        10.2147    5.5653   24.6062 C.ar      1 UNK         0.0000 
     23 N23         8.8001   -1.5484   21.1201 N.am      1 UNK         0.0000 
     24 N24         5.7453    2.3450   19.1449 N.am      1 UNK         0.0000 
     25 N25        10.2812    1.1206   22.9156 N.am      1 UNK         0.0000 
     26 O26         8.1804   -0.7184   23.1282 O.2       1 UNK         0.0000 
     27 O27         7.2352    1.5120   17.6643 O.2       1 UNK         0.0000 
     28 O28         6.3665   -3.8513   19.7073 O.2       1 UNK         0.0000 
     29 O29         9.7687    3.2493   23.0090 O.3       1 UNK         0.0000 
     30 O30         9.5794    2.2302   20.9870 O.2       1 UNK         0.0000 
     31 H31        10.5032   -1.3492   24.3660 H         1 UNK         0.0000 
     32 H32        11.7891   -0.2112   24.1799 H         1 UNK         0.0000 
     33 H33        13.9724   -2.3835   22.0634 H         1 UNK         0.0000 
     34 H34        12.9085   -1.2103   21.3523 H         1 UNK         0.0000 
     35 H35        13.8748   -0.7643   22.7571 H         1 UNK         0.0000 
     36 H36         9.3113    4.5966   21.5123 H         1 UNK         0.0000 
     37 H37        10.3223    8.9942   22.7641 H         1 UNK         0.0000 
     38 H38        11.0440    6.6250   26.2945 H         1 UNK         0.0000 
     39 H39         6.7183   -1.6450   21.4298 H         1 UNK         0.0000 
     40 H40         6.1750   -1.3381   18.9434 H         1 UNK         0.0000 
     41 H41         7.8702   -1.0508   18.6659 H         1 UNK         0.0000 
     42 H42         7.8486    0.8017   20.3017 H         1 UNK         0.0000 
     43 H43         6.1029    0.6906   21.8588 H         1 UNK         0.0000 
     44 H44         5.0225   -0.0567   20.6899 H         1 UNK         0.0000 
     45 H45         5.4604    2.8474   21.1443 H         1 UNK         0.0000 
     46 H46         4.0915    2.0062   20.4159 H         1 UNK         0.0000 
     47 H47         7.9526   -3.9830   20.9764 H         1 UNK         0.0000 
     48 H48        10.9917   -0.2601   21.5392 H         1 UNK         0.0000 
     49 H49        11.6439   -2.8542   22.7497 H         1 UNK         0.0000 
     50 H50        13.6693   -3.3044   24.2802 H         1 UNK         0.0000 
     51 H51        13.2728   -1.8360   25.1433 H         1 UNK         0.0000 
     52 H52        12.1371   -3.1846   25.1218 H         1 UNK         0.0000 
     53 H53         7.2179    3.4967   22.3443 H         1 UNK         0.0000 
     54 H54         7.4400    4.2543   23.9145 H         1 UNK         0.0000 
     55 H55         7.1253    5.2471   22.4900 H         1 UNK         0.0000 
     56 H56         9.4574    6.9851   21.5869 H         1 UNK         0.0000 
     57 H57        11.0895    8.8202   25.1266 H         1 UNK         0.0000 
     58 H58        10.1721    4.6209   25.1205 H         1 UNK         0.0000 
     59 H59         9.5574   -1.6636   20.4599 H         1 UNK         0.0000 
     60 H60         5.4420    3.1338   18.5899 H         1 UNK         0.0000 
     61 H61        10.4076    1.3011   23.9021 H         1 UNK         0.0000 
@<TRIPOS>BOND
     1    1   12 1    
     2    1   24 am   BACKBONE|DICT|INTERRES
     3    1   27 2    
     4    2   16 1    
     5    2   17 1    
     6    2   31 1    
     7    2   32 1    
     8    3   17 1    
     9    3   33 1    
    10    3   34 1    
    11    3   35 1    
    12    4   25 am   BACKBONE|DICT|INTERRES
    13    4   29 1    
    14    4   30 2    
    15    5    6 1    
    16    5   19 1    
    17    5   29 1    
    18    5   36 1    
    19    6   20 ar   
    20    6   22 ar   
    21    7   20 ar   
    22    7   21 ar   
    23    7   37 1    
    24    8   21 ar   
    25    8   22 ar   
    26    8   38 1    
    27    9   16 1    
    28    9   23 am   BACKBONE|DICT|INTERRES
    29    9   26 2    
    30   10   11 1    
    31   10   15 1    
    32   10   23 1    
    33   10   39 1    
    34   11   12 1    
    35   11   40 1    
    36   11   41 1    
    37   12   13 1    
    38   12   42 1    
    39   13   14 1    
    40   13   43 1    
    41   13   44 1    
    42   14   24 1    
    43   14   45 1    
    44   14   46 1    
    45   15   28 2    
    46   15   47 1    
    47   16   25 1    
    48   16   48 1    
    49   17   18 1    
    50   17   49 1    
    51   18   50 1    
    52   18   51 1    
    53   18   52 1    
    54   19   53 1    
    55   19   54 1    
    56   19   55 1    
    57   20   56 1    
    58   21   57 1    
    59   22   58 1    
    60   23   59 1    
    61   24   60 1    
    62   25   61 1    
@<TRIPOS>SUBSTRUCTURE
     1 UNK         1 GROUP             0       ****    0 ROOT    
