@<TRIPOS>MOLECULE
7LMD_ligand1
48   52    1
SMALL
USER_CHARGES


@<TRIPOS>ATOM
      1 C1          5.6509    0.4286   19.0662 C.ar      1 UNK         0.0000 
      2 N2          6.5542    0.0046   18.1097 N.2       1 UNK         0.0000 
      3 C3         12.0027    0.4849   22.9558 C.2       1 UNK         0.0000 
      4 O4          9.3023    1.3193   21.1346 O.2       1 UNK         0.0000 
      5 C5          9.1010    0.2591   21.7307 C.2       1 UNK         0.0000 
      6 C6          8.3311   -0.8533   21.0145 C.3       1 UNK         0.0000 
      7 N7          7.3827   -0.3257   20.0705 N.pl3     1 UNK         0.0000 
      8 C8          6.1832    0.2757   20.3569 C.ar      1 UNK         0.0000 
      9 C9          5.4969    0.6627   21.5224 C.ar      1 UNK         0.0000 
     10 C10         4.2114    1.2176   21.3933 C.ar      1 UNK         0.0000 
     11 C11         3.6310    1.3276   20.1171 C.ar      1 UNK         0.0000 
     12 C12         4.3457    0.9256   18.9666 C.ar      1 UNK         0.0000 
     13 N13         7.6015   -0.4380   18.7314 N.2       1 UNK         0.0000 
     14 N14         9.5914    0.0229   22.9713 N.am      1 UNK         0.0000 
     15 C15        10.6535    0.8890   23.4915 C.3       1 UNK         0.0000 
     16 C16        12.2528   -0.6204   22.1765 C.2       1 UNK         0.0000 
     17 S17        13.9233   -0.8185   21.8035 S.3       1 UNK         0.0000 
     18 C18        14.2865    0.6896   22.5806 C.2       1 UNK         0.0000 
     19 C19        13.1873    1.2362   23.1809 C.2       1 UNK         0.0000 
     20 C20         9.2882   -1.1349   23.7412 C.ar      1 UNK         0.0000 
     21 C21         9.6592   -2.4299   23.3056 C.ar      1 UNK         0.0000 
     22 C22         9.4472   -3.5414   24.1311 C.ar      1 UNK         0.0000 
     23 C23         8.8400   -3.3920   25.3905 C.ar      1 UNK         0.0000 
     24 C24         8.6493   -4.5653   26.2449 C.ar      1 UNK         0.0000 
     25 C25         7.6404   -4.7453   27.2284 C.ar      1 UNK         0.0000 
     26 N26         7.7452   -5.9202   27.8269 N.2       1 UNK         0.0000 
     27 N27         8.8148   -6.4888   27.2296 N.pl3     1 UNK         0.0000 
     28 C28         9.3926   -5.7073   26.2615 C.ar      1 UNK         0.0000 
     29 C29         8.4349   -2.1071   25.8087 C.ar      1 UNK         0.0000 
     30 C30         8.6688   -0.9815   24.9977 C.ar      1 UNK         0.0000 
     31 H31         7.7609   -1.4728   21.7056 H         1 UNK         0.0000 
     32 H32         9.0424   -1.4972   20.5000 H         1 UNK         0.0000 
     33 H33         5.9465    0.5346   22.4949 H         1 UNK         0.0000 
     34 H34         3.6640    1.5329   22.2691 H         1 UNK         0.0000 
     35 H35         2.6303    1.7210   20.0172 H         1 UNK         0.0000 
     36 H36         3.9010    1.0048   17.9904 H         1 UNK         0.0000 
     37 H37        10.4546    1.9390   23.2682 H         1 UNK         0.0000 
     38 H38        10.6711    0.8357   24.5797 H         1 UNK         0.0000 
     39 H39        11.5730   -1.3486   21.7788 H         1 UNK         0.0000 
     40 H40        15.2849    1.0908   22.5363 H         1 UNK         0.0000 
     41 H41        13.1797    2.1641   23.7295 H         1 UNK         0.0000 
     42 H42        10.1053   -2.6066   22.3430 H         1 UNK         0.0000 
     43 H43         9.7501   -4.5172   23.7870 H         1 UNK         0.0000 
     44 H44         6.8427   -4.0754   27.5091 H         1 UNK         0.0000 
     45 H45         9.1320   -7.4165   27.4857 H         1 UNK         0.0000 
     46 H46        10.2552   -6.0181   25.6932 H         1 UNK         0.0000 
     47 H47         7.9677   -1.9724   26.7739 H         1 UNK         0.0000 
     48 H48         8.3811   -0.0017   25.3488 H         1 UNK         0.0000 
@<TRIPOS>BOND
     1    1    2 ar   
     2    1    8 ar   
     3    1   12 ar   
     4    2   13 ar   
     5    3   15 1    
     6    3   16 2    
     7    3   19 1    
     8    4    5 2    
     9    5    6 1    
    10    5   14 am   BACKBONE|DICT|INTERRES
    11    6    7 1    
    12    6   31 1    
    13    6   32 1    
    14    7    8 ar   
    15    7   13 ar   
    16    8    9 ar   
    17    9   10 ar   
    18    9   33 1    
    19   10   11 ar   
    20   10   34 1    
    21   11   12 ar   
    22   11   35 1    
    23   12   36 1    
    24   14   15 1    
    25   14   20 1    
    26   15   37 1    
    27   15   38 1    
    28   16   17 1    
    29   16   39 1    
    30   17   18 1    
    31   18   19 2    
    32   18   40 1    
    33   19   41 1    
    34   20   21 ar   
    35   20   30 ar   
    36   21   22 ar   
    37   21   42 1    
    38   22   23 ar   
    39   22   43 1    
    40   23   24 1    
    41   23   29 ar   
    42   24   25 ar   
    43   24   28 ar   
    44   25   26 ar   
    45   25   44 1    
    46   26   27 ar   
    47   27   28 ar   
    48   27   45 1    
    49   28   46 1    
    50   29   30 ar   
    51   29   47 1    
    52   30   48 1    
@<TRIPOS>SUBSTRUCTURE
     1 UNK         1 GROUP             0       ****    0 ROOT    
