@<TRIPOS>MOLECULE
7LMF_ligand1
48   52    1
SMALL
USER_CHARGES


@<TRIPOS>ATOM
      1 O1          9.1507    1.4399   21.0630 O.2       1 UNK         0.0000 
      2 C2          8.9042    0.4710   21.7799 C.2       1 UNK         0.0000 
      3 C3          7.9954   -0.6430   21.2481 C.3       1 UNK         0.0000 
      4 N4          7.1531   -0.1827   20.1725 N.pl3     1 UNK         0.0000 
      5 C5          5.9711    0.5121   20.2666 C.ar      1 UNK         0.0000 
      6 C6          5.1935    1.0516   21.3057 C.ar      1 UNK         0.0000 
      7 C7          3.9924    1.7059   20.9775 C.ar      1 UNK         0.0000 
      8 C8          3.5814    1.7809   19.6323 C.ar      1 UNK         0.0000 
      9 C9          4.3650    1.2004   18.6135 C.ar      1 UNK         0.0000 
     10 C10         5.5938    0.5920   18.9155 C.ar      1 UNK         0.0000 
     11 N11         6.5550    0.0076   18.1132 N.2       1 UNK         0.0000 
     12 N12         7.5033   -0.4266   18.8799 N.2       1 UNK         0.0000 
     13 N13         9.4671    0.3218   22.9997 N.am      1 UNK         0.0000 
     14 C14        10.5131    1.2516   23.4376 C.3       1 UNK         0.0000 
     15 C15        11.8771    0.8736   22.9152 C.2       1 UNK         0.0000 
     16 C16        12.1550   -0.1749   22.0692 C.2       1 UNK         0.0000 
     17 S17        13.8502   -0.3986   21.8105 S.3       1 UNK         0.0000 
     18 C18        14.1884    1.0469   22.6974 C.2       1 UNK         0.0000 
     19 C19        13.0580    1.5972   23.2369 C.2       1 UNK         0.0000 
     20 C20         9.2447   -0.8268   23.8010 C.ar      1 UNK         0.0000 
     21 C21         8.5064   -0.7257   24.9983 C.ar      1 UNK         0.0000 
     22 C22         8.3256   -1.8642   25.8103 C.ar      1 UNK         0.0000 
     23 C23         8.9043   -3.0977   25.4374 C.ar      1 UNK         0.0000 
     24 C24         8.8279   -4.2800   26.2848 C.ar      1 UNK         0.0000 
     25 C25         9.6682   -5.3738   26.3028 C.ar      1 UNK         0.0000 
     26 N26         9.1813   -6.2002   27.2901 N.pl3     1 UNK         0.0000 
     27 C27         8.0990   -5.6198   27.8030 C.ar      1 UNK         0.0000 
     28 N28         7.8294   -4.4450   27.2507 N.2       1 UNK         0.0000 
     29 C29         9.6297   -3.1898   24.2392 C.ar      1 UNK         0.0000 
     30 C30         9.7853   -2.0724   23.4165 C.ar      1 UNK         0.0000 
     31 H31         7.3408   -1.0282   22.0310 H         1 UNK         0.0000 
     32 H32         8.6099   -1.4714   20.8961 H         1 UNK         0.0000 
     33 H33         5.5161    0.9755   22.3331 H         1 UNK         0.0000 
     34 H34         3.3827    2.1408   21.7561 H         1 UNK         0.0000 
     35 H35         2.6593    2.2778   19.3753 H         1 UNK         0.0000 
     36 H36         4.0300    1.2236   17.5926 H         1 UNK         0.0000 
     37 H37        10.5386    1.2663   24.5287 H         1 UNK         0.0000 
     38 H38        10.2702    2.2764   23.1528 H         1 UNK         0.0000 
     39 H39        11.4810   -0.8484   21.5727 H         1 UNK         0.0000 
     40 H40        15.2028    1.4014   22.7474 H         1 UNK         0.0000 
     41 H41        13.0250    2.4952   23.8315 H         1 UNK         0.0000 
     42 H42         8.0854    0.2218   25.3015 H         1 UNK         0.0000 
     43 H43         7.7708   -1.7788   26.7325 H         1 UNK         0.0000 
     44 H44        10.5525   -5.6136   25.7311 H         1 UNK         0.0000 
     45 H45         9.5868   -7.0776   27.5884 H         1 UNK         0.0000 
     46 H46         7.5148   -6.0499   28.6039 H         1 UNK         0.0000 
     47 H47        10.0731   -4.1253   23.9440 H         1 UNK         0.0000 
     48 H48        10.3240   -2.2078   22.4959 H         1 UNK         0.0000 
@<TRIPOS>BOND
     1    1    2 2    
     2    2    3 1    
     3    2   13 am   BACKBONE|DICT|INTERRES
     4    3    4 1    
     5    3   31 1    
     6    3   32 1    
     7    4    5 ar   
     8    4   12 ar   
     9    5    6 ar   
    10    5   10 ar   
    11    6    7 ar   
    12    6   33 1    
    13    7    8 ar   
    14    7   34 1    
    15    8    9 ar   
    16    8   35 1    
    17    9   10 ar   
    18    9   36 1    
    19   10   11 ar   
    20   11   12 ar   
    21   13   14 1    
    22   13   20 1    
    23   14   15 1    
    24   14   37 1    
    25   14   38 1    
    26   15   16 2    
    27   15   19 1    
    28   16   17 1    
    29   16   39 1    
    30   17   18 1    
    31   18   19 2    
    32   18   40 1    
    33   19   41 1    
    34   20   21 ar   
    35   20   30 ar   
    36   21   22 ar   
    37   21   42 1    
    38   22   23 ar   
    39   22   43 1    
    40   23   24 1    
    41   23   29 ar   
    42   24   25 ar   
    43   24   28 ar   
    44   25   26 ar   
    45   25   44 1    
    46   26   27 ar   
    47   26   45 1    
    48   27   28 ar   
    49   27   46 1    
    50   29   30 ar   
    51   29   47 1    
    52   30   48 1    
@<TRIPOS>SUBSTRUCTURE
     1 UNK         1 GROUP             0       ****    0 ROOT    
