@<TRIPOS>MOLECULE
7M8M_ligand
50   53    1
SMALL
USER_CHARGES


@<TRIPOS>ATOM
      1 N1          5.9960   -6.0814   22.4869 N.pl3     1 UNK         0.0000 
      2 C2          9.6186   -1.1089   22.1371 C.ar      1 UNK         0.0000 
      3 N3          7.6765   -0.8711   20.7420 N.pl3     1 UNK         0.0000 
      4 C4         12.0298   -1.6465   22.5179 C.ar      1 UNK         0.0000 
      5 C5         13.3425   -1.2578   22.8357 C.ar      1 UNK         0.0000 
      6 C6         13.6346    0.0896   23.1086 C.ar      1 UNK         0.0000 
      7 C7         12.0938    3.3950   22.9308 C.3       1 UNK         0.0000 
      8 C8          8.8313   -0.3101   21.1794 C.ar      1 UNK         0.0000 
      9 C9         14.0030    4.8526   22.0754 C.3       1 UNK         0.0000 
     10 C10        11.2905    0.6565   22.8129 C.ar      1 UNK         0.0000 
     11 C11         9.1167   -2.2931   22.5769 C.ar      1 UNK         0.0000 
     12 C12         7.8133   -2.7961   22.1706 C.ar      1 UNK         0.0000 
     13 C13         7.2461   -4.0502   22.6633 C.ar      1 UNK         0.0000 
     14 C14         6.4775   -4.9960   21.8318 C.ar      1 UNK         0.0000 
     15 C15         7.4605   -4.4846   23.9606 C.ar      1 UNK         0.0000 
     16 C16         6.1845   -6.3968   23.7928 C.ar      1 UNK         0.0000 
     17 C17         7.1613   -2.0611   21.2575 C.ar      1 UNK         0.0000 
     18 C18         6.8750   -0.2093   19.7947 C.ar      1 UNK         0.0000 
     19 C19         5.6482    0.3454   20.1887 C.ar      1 UNK         0.0000 
     20 C20         4.8833    1.0082   19.2219 C.ar      1 UNK         0.0000 
     21 C21         5.3762    1.0854   17.9028 C.ar      1 UNK         0.0000 
     22 C22         7.2866   -0.0893   18.4518 C.ar      1 UNK         0.0000 
     23 C23        10.9935   -0.6919   22.4992 C.ar      1 UNK         0.0000 
     24 C24        12.6179    1.0632   23.0860 C.ar      1 UNK         0.0000 
     25 C25        12.8174    4.7403   23.0361 C.3       1 UNK         0.0000 
     26 N26         6.9677   -5.5862   24.5582 N.2       1 UNK         0.0000 
     27 N27         6.5520    0.5516   17.5246 N.ar      1 UNK         0.0000 
     28 O28         9.1692    0.8130   20.7896 O.2       1 UNK         0.0000 
     29 O29        12.9887    2.3665   23.3304 O.3       1 UNK         0.0000 
     30 O30         6.2566   -4.8604   20.6265 O.2       1 UNK         0.0000 
     31 O31         5.6318   -7.4101   24.2118 O.2       1 UNK         0.0000 
     32 Cl32       14.5895   -2.4420   22.8867 Cl        1 UNK         0.0000 
     33 H33         5.4445   -6.7350   21.9489 H         1 UNK         0.0000 
     34 H34        11.8304   -2.6806   22.2799 H         1 UNK         0.0000 
     35 H35        14.6499    0.3826   23.3201 H         1 UNK         0.0000 
     36 H36        11.7553    3.2361   21.9057 H         1 UNK         0.0000 
     37 H37        11.2178    3.4021   23.5808 H         1 UNK         0.0000 
     38 H38        14.4444    5.8453   22.1333 H         1 UNK         0.0000 
     39 H39        14.7801    4.1254   22.3147 H         1 UNK         0.0000 
     40 H40        13.6911    4.6827   21.0448 H         1 UNK         0.0000 
     41 H41        10.4910    1.3806   22.8259 H         1 UNK         0.0000 
     42 H42         9.7146   -2.9021   23.2395 H         1 UNK         0.0000 
     43 H43         8.0382   -3.8136   24.6317 H         1 UNK         0.0000 
     44 H44         6.1916   -2.3296   20.8617 H         1 UNK         0.0000 
     45 H45         5.2987    0.2714   21.2084 H         1 UNK         0.0000 
     46 H46         3.9373    1.4239   19.5185 H         1 UNK         0.0000 
     47 H47         4.8208    1.5790   17.1211 H         1 UNK         0.0000 
     48 H48         8.2169   -0.5163   18.1085 H         1 UNK         0.0000 
     49 H49        13.1573    4.8922   24.0611 H         1 UNK         0.0000 
     50 H50        12.1143    5.5447   22.8204 H         1 UNK         0.0000 
@<TRIPOS>BOND
     1    1   14 ar   
     2    1   16 ar   
     3    1   33 1    
     4    2    8 ar   
     5    2   11 ar   
     6    2   23 1    
     7    3    8 ar   
     8    3   17 ar   
     9    3   18 1    
    10    4    5 ar   
    11    4   23 ar   
    12    4   34 1    
    13    5    6 ar   
    14    5   32 1    
    15    6   24 ar   
    16    6   35 1    
    17    7   25 1    
    18    7   29 1    
    19    7   36 1    
    20    7   37 1    
    21    8   28 2    
    22    9   25 1    
    23    9   38 1    
    24    9   39 1    
    25    9   40 1    
    26   10   23 ar   
    27   10   24 ar   
    28   10   41 1    
    29   11   12 ar   
    30   11   42 1    
    31   12   13 1    
    32   12   17 ar   
    33   13   14 ar   
    34   13   15 ar   
    35   14   30 2    
    36   15   26 ar   
    37   15   43 1    
    38   16   26 ar   
    39   16   31 2    
    40   17   44 1    
    41   18   19 ar   
    42   18   22 ar   
    43   19   20 ar   
    44   19   45 1    
    45   20   21 ar   
    46   20   46 1    
    47   21   27 ar   
    48   21   47 1    
    49   22   27 ar   
    50   22   48 1    
    51   24   29 1    
    52   25   49 1    
    53   25   50 1    
@<TRIPOS>SUBSTRUCTURE
     1 UNK         1 GROUP             0       ****    0 ROOT    
