@<TRIPOS>MOLECULE
7M8N_ligand1
58   62    1
SMALL
USER_CHARGES


@<TRIPOS>ATOM
      1 C1          7.3726   -1.8564   21.3704 C.ar      1 UNK         0.0000 
      2 C2          5.8955    0.5378   20.2263 C.ar      1 UNK         0.0000 
      3 C3          9.0693   -0.1336   21.2451 C.ar      1 UNK         0.0000 
      4 C4          7.1201   -0.0329   19.8465 C.ar      1 UNK         0.0000 
      5 C5          5.6566    1.2918   17.9380 C.ar      1 UNK         0.0000 
      6 C6          5.1537    1.2176   19.2547 C.ar      1 UNK         0.0000 
      7 C7          6.6718   -4.7540   22.0615 C.ar      1 UNK         0.0000 
      8 C8          7.5504   -4.0466   24.2180 C.ar      1 UNK         0.0000 
      9 C9         11.4532    0.8553   22.9912 C.ar      1 UNK         0.0000 
     10 C10        12.7681    1.2801   23.2960 C.ar      1 UNK         0.0000 
     11 C11        14.5058    4.5961   21.7516 C.3       1 UNK         0.0000 
     12 C12        14.5535    6.6203   23.2595 C.ar      1 UNK         0.0000 
     13 C13        14.0553    7.3852   24.3288 C.ar      1 UNK         0.0000 
     14 C14        13.9291    5.4082   22.8954 C.ar      1 UNK         0.0000 
     15 C15        12.8938    6.9740   25.0069 C.ar      1 UNK         0.0000 
     16 C16        12.2527    5.7789   24.6359 C.ar      1 UNK         0.0000 
     17 C17        13.8136    0.3373   23.2568 C.ar      1 UNK         0.0000 
     18 C18        13.5609   -0.9983   22.8914 C.ar      1 UNK         0.0000 
     19 C19        12.2593   -1.4051   22.5540 C.ar      1 UNK         0.0000 
     20 C20         6.2014   -6.0447   24.1206 C.ar      1 UNK         0.0000 
     21 C21         9.3132   -2.0654   22.7209 C.ar      1 UNK         0.0000 
     22 C22         9.8308   -0.9063   22.2401 C.ar      1 UNK         0.0000 
     23 C23        11.1975   -0.4803   22.6068 C.ar      1 UNK         0.0000 
     24 C24        12.1696    3.6075   23.3447 C.3       1 UNK         0.0000 
     25 C25        12.7901    4.9662   23.6143 C.ar      1 UNK         0.0000 
     26 C26         7.5440    0.0912   18.5066 C.ar      1 UNK         0.0000 
     27 C27         8.0039   -2.5634   22.3240 C.ar      1 UNK         0.0000 
     28 C28         7.4014   -3.7713   22.8927 C.ar      1 UNK         0.0000 
     29 N29         7.9104   -0.6936   20.8107 N.pl3     1 UNK         0.0000 
     30 N30         6.8285    0.7411   17.5657 N.ar      1 UNK         0.0000 
     31 N31         6.1042   -5.8284   22.7519 N.pl3     1 UNK         0.0000 
     32 N32         6.9737   -5.1353   24.8381 N.pl3     1 UNK         0.0000 
     33 O33         9.4368    0.9654   20.8213 O.2       1 UNK         0.0000 
     34 O34         6.5281   -4.7013   20.8400 O.2       1 UNK         0.0000 
     35 O35         5.6393   -6.9916   24.6645 O.2       1 UNK         0.0000 
     36 O36        13.1003    2.5726   23.6350 O.3       1 UNK         0.0000 
     37 Cl37       14.8417   -2.1477   22.8692 Cl        1 UNK         0.0000 
     38 H38         6.4004   -2.1230   20.9818 H         1 UNK         0.0000 
     39 H39         5.5338    0.4658   21.2430 H         1 UNK         0.0000 
     40 H40         5.1056    1.7955   17.1589 H         1 UNK         0.0000 
     41 H41         4.2095    1.6444   19.5449 H         1 UNK         0.0000 
     42 H42         8.1031   -3.3687   24.8543 H         1 UNK         0.0000 
     43 H43        10.6293    1.5504   23.0388 H         1 UNK         0.0000 
     44 H44        13.7201    4.2558   21.0774 H         1 UNK         0.0000 
     45 H45        15.2079    5.1870   21.1653 H         1 UNK         0.0000 
     46 H46        15.0352    3.7241   22.1366 H         1 UNK         0.0000 
     47 H47        15.4247    6.9636   22.7232 H         1 UNK         0.0000 
     48 H48        14.5561    8.2959   24.6164 H         1 UNK         0.0000 
     49 H49        12.4992    7.5712   25.8155 H         1 UNK         0.0000 
     50 H50        11.3747    5.4606   25.1781 H         1 UNK         0.0000 
     51 H51        14.8196    0.6444   23.4964 H         1 UNK         0.0000 
     52 H52        12.0803   -2.4284   22.2576 H         1 UNK         0.0000 
     53 H53         9.8997   -2.6533   23.4122 H         1 UNK         0.0000 
     54 H54        11.8494    3.5525   22.3049 H         1 UNK         0.0000 
     55 H55        11.2812    3.4874   23.9675 H         1 UNK         0.0000 
     56 H56         8.4763   -0.3418   18.1760 H         1 UNK         0.0000 
     57 H57         5.5868   -6.5129   22.2152 H         1 UNK         0.0000 
     58 H58         7.0894   -5.2858   25.8305 H         1 UNK         0.0000 
@<TRIPOS>BOND
     1    1   27 ar   
     2    1   29 ar   
     3    1   38 1    
     4    2    4 ar   
     5    2    6 ar   
     6    2   39 1    
     7    3   22 ar   
     8    3   29 ar   
     9    3   33 2    
    10    4   26 ar   
    11    4   29 1    
    12    5    6 ar   
    13    5   30 ar   
    14    5   40 1    
    15    6   41 1    
    16    7   28 ar   
    17    7   31 ar   
    18    7   34 2    
    19    8   28 ar   
    20    8   32 ar   
    21    8   42 1    
    22    9   10 ar   
    23    9   23 ar   
    24    9   43 1    
    25   10   17 ar   
    26   10   36 1    
    27   11   14 1    
    28   11   44 1    
    29   11   45 1    
    30   11   46 1    
    31   12   13 ar   
    32   12   14 ar   
    33   12   47 1    
    34   13   15 ar   
    35   13   48 1    
    36   14   25 ar   
    37   15   16 ar   
    38   15   49 1    
    39   16   25 ar   
    40   16   50 1    
    41   17   18 ar   
    42   17   51 1    
    43   18   19 ar   
    44   18   37 1    
    45   19   23 ar   
    46   19   52 1    
    47   20   31 ar   
    48   20   32 ar   
    49   20   35 2    
    50   21   22 ar   
    51   21   27 ar   
    52   21   53 1    
    53   22   23 1    
    54   24   25 1    
    55   24   36 1    
    56   24   54 1    
    57   24   55 1    
    58   26   30 ar   
    59   26   56 1    
    60   27   28 1    
    61   31   57 1    
    62   32   58 1    
@<TRIPOS>SUBSTRUCTURE
     1 UNK         1 GROUP             0       ****    0 ROOT    
