@<TRIPOS>MOLECULE
7M8O_ligand2
54   58    1
SMALL
USER_CHARGES


@<TRIPOS>ATOM
      1 C1          8.7100   -0.4070   21.1550 C.ar      1 YSM         0.0000 
      2 F1         14.9090    7.1930   23.1390 F         1 YSM         0.0000 
      3 N1          7.5730   -0.9890   20.6900 N.pl3     1 YSM         0.0000 
      4 C2          6.7650   -0.3200   19.7500 C.ar      1 YSM         0.0000 
      5 C3          7.2170   -0.0740   18.4370 C.ar      1 YSM         0.0000 
      6 N3          5.9610   -6.2620   22.4230 N.pl3     1 YSM         0.0000 
      7 O3          5.8040   -7.6840   24.1080 O.2       1 YSM         0.0000 
      8 C4          5.2490    0.9990   17.8780 C.ar      1 YSM         0.0000 
      9 O4         12.5120    2.3380   23.8670 O.3       1 YSM         0.0000 
     10 C5          4.7170    0.8040   19.1680 C.ar      1 YSM         0.0000 
     11 C6          5.4860    0.1280   20.1220 C.ar      1 YSM         0.0000 
     12 C7          7.0850   -2.2070   21.1750 C.ar      1 YSM         0.0000 
     13 C8          7.7490   -2.9500   22.0790 C.ar      1 YSM         0.0000 
     14 C9          7.2360   -4.2380   22.5550 C.ar      1 YSM         0.0000 
     15 C10         6.3690   -5.1410   21.7710 C.ar      1 YSM         0.0000 
     16 C11         7.5940   -4.7450   23.7940 C.ar      1 YSM         0.0000 
     17 C12         6.3090   -6.6510   23.6770 C.ar      1 YSM         0.0000 
     18 C13         9.0260   -2.4080   22.5170 C.ar      1 YSM         0.0000 
     19 C14         9.4880   -1.1960   22.1230 C.ar      1 YSM         0.0000 
     20 C15        10.8140   -0.7260   22.5710 C.ar      1 YSM         0.0000 
     21 C16        11.9090   -1.6110   22.5610 C.ar      1 YSM         0.0000 
     22 C17        13.1670   -1.1770   23.0120 C.ar      1 YSM         0.0000 
     23 C18        13.3420    0.1440   23.4610 C.ar      1 YSM         0.0000 
     24 C20        11.7770    3.3810   23.2390 C.3       1 YSM         0.0000 
     25 C21        12.2440    4.7310   23.7370 C.ar      1 YSM         0.0000 
     26 C22        11.5390    5.3720   24.7770 C.ar      1 YSM         0.0000 
     27 C23        11.9990    6.5980   25.2920 C.ar      1 YSM         0.0000 
     28 C24        13.1550    7.1970   24.7570 C.ar      1 YSM         0.0000 
     29 C26        13.3940    5.3400   23.1910 C.ar      1 YSM         0.0000 
     30 C19        12.2630    1.0510   23.4510 C.ar      1 YSM         0.0000 
     31 C25        13.8390    6.5780   23.6940 C.ar      1 YSM         0.0000 
     32 C27        10.9920    0.6010   23.0240 C.ar      1 YSM         0.0000 
     33 N2          6.4780    0.5830   17.5240 N.ar      1 YSM         0.0000 
     34 N4          7.1940   -5.8900   24.3780 N.2       1 YSM         0.0000 
     35 O1          9.0440    0.7210   20.7830 O.2       1 YSM         0.0000 
     36 O2          6.0130   -4.9480   20.6080 O.2       1 YSM         0.0000 
     37 CL1        14.4890   -2.2800   23.0100 Cl        1 YSM         0.0000 
     38 HC3         8.1920   -0.4050   18.1110 H         1 YSM         0.0000 
     39 HN3         5.3410   -6.8820   21.9230 H         1 YSM         0.0000 
     40 HC4         4.6760    1.5020   17.1140 H         1 YSM         0.0000 
     41 HC5         3.7280    1.1350   19.4330 H         1 YSM         0.0000 
     42 HC6         5.0930   -0.0440   21.1130 H         1 YSM         0.0000 
     43 HC7         6.1270   -2.4870   20.7620 H         1 YSM         0.0000 
     44 HC11        8.2360   -4.1090   24.4380 H         1 YSM         0.0000 
     45 HC13        9.6380   -2.9960   23.1860 H         1 YSM         0.0000 
     46 HC16       11.7940   -2.6230   22.2090 H         1 YSM         0.0000 
     47 HC18       14.3150    0.4740   23.7920 H         1 YSM         0.0000 
     48 H201       10.7090    3.2940   23.4440 H         1 YSM         0.0000 
     49 H202       11.9100    3.3280   22.1580 H         1 YSM         0.0000 
     50 HC22       10.6580    4.9150   25.2000 H         1 YSM         0.0000 
     51 HC23       11.4660    7.0800   26.0980 H         1 YSM         0.0000 
     52 HC24       13.5040    8.1420   25.1450 H         1 YSM         0.0000 
     53 HC26       13.9330    4.8620   22.3870 H         1 YSM         0.0000 
     54 HC27       10.1410    1.2630   23.0470 H         1 YSM         0.0000 
@<TRIPOS>BOND
     1    1    3 ar   
     2    1   19 ar   
     3    1   35 2    
     4    2   31 1    
     5    3    4 1    
     6    3   12 ar   
     7    4    5 ar   
     8    4   11 ar   
     9    5   33 ar   
    10    5   38 1    
    11    6   15 ar   
    12    6   17 ar   
    13    6   39 1    
    14    7   17 2    
    15    8   10 ar   
    16    8   33 ar   
    17    8   40 1    
    18    9   24 1    
    19    9   30 1    
    20   10   11 ar   
    21   10   41 1    
    22   11   42 1    
    23   12   13 ar   
    24   12   43 1    
    25   13   14 1    
    26   13   18 ar   
    27   14   15 ar   
    28   14   16 ar   
    29   15   36 2    
    30   16   34 ar   
    31   16   44 1    
    32   17   34 ar   
    33   18   19 ar   
    34   18   45 1    
    35   19   20 1    
    36   20   21 ar   
    37   20   32 ar   
    38   21   22 ar   
    39   21   46 1    
    40   22   23 ar   
    41   22   37 1    
    42   23   30 ar   
    43   23   47 1    
    44   24   25 1    
    45   24   48 1    
    46   24   49 1    
    47   25   26 ar   
    48   25   29 ar   
    49   26   27 ar   
    50   26   50 1    
    51   27   28 ar   
    52   27   51 1    
    53   28   31 ar   
    54   28   52 1    
    55   29   31 ar   
    56   29   53 1    
    57   30   32 ar   
    58   32   54 1    
@<TRIPOS>SUBSTRUCTURE
     1 YSM         1 GROUP             0 A     ****    0 ROOT    
