@<TRIPOS>MOLECULE
7M8P_ligand
54   58    1
SMALL
USER_CHARGES


@<TRIPOS>ATOM
      1 C1          6.0060   -5.9578   24.1496 C.ar      1 UNK         0.0000 
      2 C2          7.0828   -1.7706   21.4097 C.ar      1 UNK         0.0000 
      3 C3          6.8643    0.0359   19.8708 C.ar      1 UNK         0.0000 
      4 C4          5.4056    1.2614   17.9008 C.ar      1 UNK         0.0000 
      5 C5          4.8983    1.2562   19.2161 C.ar      1 UNK         0.0000 
      6 C6          5.6411    0.6285   20.2235 C.ar      1 UNK         0.0000 
      7 C7         11.1611    0.8962   23.0392 C.ar      1 UNK         0.0000 
      8 C8         12.4753    1.3188   23.3313 C.ar      1 UNK         0.0000 
      9 C9         11.8745    3.6527   23.5062 C.3       1 UNK         0.0000 
     10 C10        13.6851    5.4281   23.2357 C.ar      1 UNK         0.0000 
     11 C11        14.3296    6.6004   23.6761 C.ar      1 UNK         0.0000 
     12 C12        13.8163    7.3235   24.7682 C.ar      1 UNK         0.0000 
     13 C13        11.9982    5.7118   24.9776 C.ar      1 UNK         0.0000 
     14 C14        13.5243    0.3821   23.2927 C.ar      1 UNK         0.0000 
     15 C15        13.2792   -0.9555   22.9368 C.ar      1 UNK         0.0000 
     16 C16         7.2974    0.1030   18.5313 C.ar      1 UNK         0.0000 
     17 C17         8.8154   -0.0859   21.2658 C.ar      1 UNK         0.0000 
     18 C18        11.9737   -1.3712   22.6216 C.ar      1 UNK         0.0000 
     19 C19        12.5222    4.9678   23.8991 C.ar      1 UNK         0.0000 
     20 C20        12.6439    6.8851   25.4123 C.ar      1 UNK         0.0000 
     21 C21        10.9128   -0.4434   22.6630 C.ar      1 UNK         0.0000 
     22 C22         9.5523   -0.8575   22.2789 C.ar      1 UNK         0.0000 
     23 C23         9.0173   -2.0046   22.7655 C.ar      1 UNK         0.0000 
     24 C24         7.7068   -2.4846   22.3608 C.ar      1 UNK         0.0000 
     25 C25         7.1093   -3.6945   22.9137 C.ar      1 UNK         0.0000 
     26 C26         6.3585   -4.6812   22.1133 C.ar      1 UNK         0.0000 
     27 C27         7.2909   -4.0508   24.2377 C.ar      1 UNK         0.0000 
     28 F28        14.7818    0.7827   23.5820 F         1 UNK         0.0000 
     29 N29         5.8492   -5.7215   22.8241 N.pl3     1 UNK         0.0000 
     30 N30         6.7843   -5.1183   24.8876 N.2       1 UNK         0.0000 
     31 N31         7.6376   -0.6168   20.8506 N.pl3     1 UNK         0.0000 
     32 N32         6.5839    0.7058   17.5586 N.ar      1 UNK         0.0000 
     33 O33         6.1832   -4.6145   20.8983 O.2       1 UNK         0.0000 
     34 O34         5.4329   -6.9380   24.6135 O.2       1 UNK         0.0000 
     35 O35         9.2190    0.9891   20.8127 O.2       1 UNK         0.0000 
     36 O36        12.8227    2.6084   23.6491 O.3       1 UNK         0.0000 
     37 Cl37       14.5858   -2.0780   22.8623 Cl        1 UNK         0.0000 
     38 Cl38       14.3462    4.5714   21.8890 Cl        1 UNK         0.0000 
     39 H39         6.1103   -2.0312   21.0168 H         1 UNK         0.0000 
     40 H40         4.8566    1.7340   17.1032 H         1 UNK         0.0000 
     41 H41         3.9447    1.6938   19.4585 H         1 UNK         0.0000 
     42 H42         5.2729    0.5965   21.2383 H         1 UNK         0.0000 
     43 H43        10.3393    1.5952   23.0725 H         1 UNK         0.0000 
     44 H44        11.5290    3.7098   22.4757 H         1 UNK         0.0000 
     45 H45        11.0072    3.4687   24.1415 H         1 UNK         0.0000 
     46 H46        15.2209    6.9489   23.1756 H         1 UNK         0.0000 
     47 H47        14.3181    8.2183   25.1068 H         1 UNK         0.0000 
     48 H48        11.1119    5.3714   25.4934 H         1 UNK         0.0000 
     49 H49         8.2354   -0.3398   18.2302 H         1 UNK         0.0000 
     50 H50        11.7984   -2.3954   22.3271 H         1 UNK         0.0000 
     51 H51        12.2464    7.4424   26.2481 H         1 UNK         0.0000 
     52 H52         9.5882   -2.5904   23.4711 H         1 UNK         0.0000 
     53 H53         7.8623   -3.3489   24.8815 H         1 UNK         0.0000 
     54 H54         5.3061   -6.4009   22.3113 H         1 UNK         0.0000 
@<TRIPOS>BOND
     1    1   29 ar   
     2    1   30 ar   
     3    1   34 2    
     4    2   24 ar   
     5    2   31 ar   
     6    2   39 1    
     7    3    6 ar   
     8    3   16 ar   
     9    3   31 1    
    10    4    5 ar   
    11    4   32 ar   
    12    4   40 1    
    13    5    6 ar   
    14    5   41 1    
    15    6   42 1    
    16    7    8 ar   
    17    7   21 ar   
    18    7   43 1    
    19    8   14 ar   
    20    8   36 1    
    21    9   19 1    
    22    9   36 1    
    23    9   44 1    
    24    9   45 1    
    25   10   11 ar   
    26   10   19 ar   
    27   10   38 1    
    28   11   12 ar   
    29   11   46 1    
    30   12   20 ar   
    31   12   47 1    
    32   13   19 ar   
    33   13   20 ar   
    34   13   48 1    
    35   14   15 ar   
    36   14   28 1    
    37   15   18 ar   
    38   15   37 1    
    39   16   32 ar   
    40   16   49 1    
    41   17   22 ar   
    42   17   31 ar   
    43   17   35 2    
    44   18   21 ar   
    45   18   50 1    
    46   20   51 1    
    47   21   22 1    
    48   22   23 ar   
    49   23   24 ar   
    50   23   52 1    
    51   24   25 1    
    52   25   26 ar   
    53   25   27 ar   
    54   26   29 ar   
    55   26   33 2    
    56   27   30 ar   
    57   27   53 1    
    58   29   54 1    
@<TRIPOS>SUBSTRUCTURE
     1 UNK         1 GROUP             0       ****    0 ROOT    
