@<TRIPOS>MOLECULE
7M8X_ligand1
53   56    1
SMALL
USER_CHARGES


@<TRIPOS>ATOM
      1 C1         12.3114    4.7417   23.0699 C.3       1 UNK         0.0000 
      2 C2         11.6961    3.3385   22.9482 C.3       1 UNK         0.0000 
      3 C3         12.2450    1.0363   23.2784 C.ar      1 UNK         0.0000 
      4 C4         14.4615    4.5002   22.0911 C.3       1 UNK         0.0000 
      5 C5         10.9448    0.5925   22.9382 C.ar      1 UNK         0.0000 
      6 C6         13.2690    0.0821   23.4223 C.ar      1 UNK         0.0000 
      7 C7          5.9834   -5.2099   21.1585 C.1       1 UNK         0.0000 
      8 C8          6.2131   -5.1438   22.5927 C.ar      1 UNK         0.0000 
      9 C9          8.5308   -0.5241   21.3137 C.ar      1 UNK         0.0000 
     10 C10         5.6766   -6.1929   23.3693 C.ar      1 UNK         0.0000 
     11 C11         5.9040   -6.2479   24.7545 C.ar      1 UNK         0.0000 
     12 C12         6.6982   -5.2678   25.3716 C.ar      1 UNK         0.0000 
     13 C13         7.2368   -4.2167   24.6077 C.ar      1 UNK         0.0000 
     14 C14         8.8355   -2.3805   22.8634 C.ar      1 UNK         0.0000 
     15 C15         9.3224   -1.2326   22.3332 C.ar      1 UNK         0.0000 
     16 C16        10.6851   -0.7757   22.6908 C.ar      1 UNK         0.0000 
     17 C17        11.7349   -1.7099   22.8135 C.ar      1 UNK         0.0000 
     18 C18         6.5347   -0.5172   19.9538 C.ar      1 UNK         0.0000 
     19 C19        13.0191   -1.2820   23.1878 C.ar      1 UNK         0.0000 
     20 C20         6.9968   -0.3761   18.6283 C.ar      1 UNK         0.0000 
     21 C21         4.9658    0.4589   17.9221 C.ar      1 UNK         0.0000 
     22 C22         4.4324    0.4306   19.2246 C.ar      1 UNK         0.0000 
     23 C23         5.2301   -0.0849   20.2572 C.ar      1 UNK         0.0000 
     24 C24         6.8514   -2.2514   21.5776 C.ar      1 UNK         0.0000 
     25 C25         7.5364   -2.9293   22.5151 C.ar      1 UNK         0.0000 
     26 C26         6.9837   -4.1187   23.2193 C.ar      1 UNK         0.0000 
     27 N27         7.3514   -1.0998   20.9525 N.pl3     1 UNK         0.0000 
     28 N28         6.2277    0.0985   17.6297 N.ar      1 UNK         0.0000 
     29 N29         5.7978   -5.2640   20.0194 N.1       1 UNK         0.0000 
     30 O30         8.8875    0.5437   20.8127 O.2       1 UNK         0.0000 
     31 O31        12.5743    2.3585   23.4851 O.3       1 UNK         0.0000 
     32 O32        13.1626    5.0552   21.9768 O.3       1 UNK         0.0000 
     33 Cl33       14.2893   -2.4338   23.3515 Cl        1 UNK         0.0000 
     34 H34        12.8097    4.8826   24.0306 H         1 UNK         0.0000 
     35 H35        11.4993    5.4686   23.0403 H         1 UNK         0.0000 
     36 H36        11.4651    3.1177   21.9060 H         1 UNK         0.0000 
     37 H37        10.7629    3.3232   23.5111 H         1 UNK         0.0000 
     38 H38        15.0469    4.7540   21.2079 H         1 UNK         0.0000 
     39 H39        14.9842    4.8918   22.9627 H         1 UNK         0.0000 
     40 H40        14.4361    3.4174   22.1689 H         1 UNK         0.0000 
     41 H41        10.1307    1.2972   22.8678 H         1 UNK         0.0000 
     42 H42        14.2640    0.4023   23.6843 H         1 UNK         0.0000 
     43 H43         5.0905   -6.9712   22.9028 H         1 UNK         0.0000 
     44 H44         5.4875   -7.0535   25.3425 H         1 UNK         0.0000 
     45 H45         6.8880   -5.3180   26.4337 H         1 UNK         0.0000 
     46 H46         7.8207   -3.4622   25.1154 H         1 UNK         0.0000 
     47 H47         9.4418   -2.9273   23.5700 H         1 UNK         0.0000 
     48 H48        11.5632   -2.7588   22.6223 H         1 UNK         0.0000 
     49 H49         7.9976   -0.6757   18.3540 H         1 UNK         0.0000 
     50 H50         4.3656    0.7893   17.0893 H         1 UNK         0.0000 
     51 H51         3.4265    0.7660   19.4239 H         1 UNK         0.0000 
     52 H52         4.8480   -0.1610   21.2623 H         1 UNK         0.0000 
     53 H53         5.8564   -2.5267   21.2574 H         1 UNK         0.0000 
@<TRIPOS>BOND
     1    1    2 1    
     2    1   32 1    
     3    1   34 1    
     4    1   35 1    
     5    2   31 1    
     6    2   36 1    
     7    2   37 1    
     8    3    5 ar   
     9    3    6 ar   
    10    3   31 1    
    11    4   32 1    
    12    4   38 1    
    13    4   39 1    
    14    4   40 1    
    15    5   16 ar   
    16    5   41 1    
    17    6   19 ar   
    18    6   42 1    
    19    7    8 1    
    20    7   29 3    
    21    8   10 ar   
    22    8   26 ar   
    23    9   15 ar   
    24    9   27 ar   
    25    9   30 2    
    26   10   11 ar   
    27   10   43 1    
    28   11   12 ar   
    29   11   44 1    
    30   12   13 ar   
    31   12   45 1    
    32   13   26 ar   
    33   13   46 1    
    34   14   15 ar   
    35   14   25 ar   
    36   14   47 1    
    37   15   16 1    
    38   16   17 ar   
    39   17   19 ar   
    40   17   48 1    
    41   18   20 ar   
    42   18   23 ar   
    43   18   27 1    
    44   19   33 1    
    45   20   28 ar   
    46   20   49 1    
    47   21   22 ar   
    48   21   28 ar   
    49   21   50 1    
    50   22   23 ar   
    51   22   51 1    
    52   23   52 1    
    53   24   25 ar   
    54   24   27 ar   
    55   24   53 1    
    56   25   26 1    
@<TRIPOS>SUBSTRUCTURE
     1 UNK         1 GROUP             0       ****    0 ROOT    
