@<TRIPOS>MOLECULE
7M8Y_ligand1
57   61    1
SMALL
USER_CHARGES


@<TRIPOS>ATOM
      1 C1          8.4904   -0.2415   21.4938 C.ar      1 UNK         0.0000 
      2 C2          9.2003   -1.0281   22.5189 C.ar      1 UNK         0.0000 
      3 C3         10.5401   -0.6238   22.9883 C.ar      1 UNK         0.0000 
      4 C4         11.5884   -1.5683   23.0205 C.ar      1 UNK         0.0000 
      5 C5         12.8834   -1.1704   23.3979 C.ar      1 UNK         0.0000 
      6 C6         13.1417    0.1701   23.7319 C.ar      1 UNK         0.0000 
      7 O7          8.8422    0.8918   21.1542 O.2       1 UNK         0.0000 
      8 O8         12.3308    2.4497   23.9242 O.3       1 UNK         0.0000 
      9 C9         12.0985    1.1186   23.7015 C.ar      1 UNK         0.0000 
     10 C10        13.3527    3.0002   23.0988 C.3       1 UNK         0.0000 
     11 C11        12.9020    4.3478   22.5398 C.3       1 UNK         0.0000 
     12 O12         6.0168   -4.9156   20.9194 O.2       1 UNK         0.0000 
     13 O13         5.3203   -7.2861   24.6201 O.2       1 UNK         0.0000 
     14 C14        12.6158    5.3541   23.6349 C.ar      1 UNK         0.0000 
     15 C15        13.6005    6.2956   23.9901 C.ar      1 UNK         0.0000 
     16 C16        13.3583    7.2138   25.0295 C.ar      1 UNK         0.0000 
     17 C17        12.1295    7.1915   25.7159 C.ar      1 UNK         0.0000 
     18 C18        11.1319    6.2699   25.3435 C.ar      1 UNK         0.0000 
     19 C19        11.3740    5.3517   24.3027 C.ar      1 UNK         0.0000 
     20 C20        10.7932    0.7108   23.3742 C.ar      1 UNK         0.0000 
     21 C21         8.6687   -2.2014   22.9304 C.ar      1 UNK         0.0000 
     22 C22         7.4047   -2.7087   22.4316 C.ar      1 UNK         0.0000 
     23 C23         6.8250   -3.9367   22.9574 C.ar      1 UNK         0.0000 
     24 C24         6.1704   -4.9713   22.1390 C.ar      1 UNK         0.0000 
     25 C25         6.9492   -4.2611   24.2955 C.ar      1 UNK         0.0000 
     26 C26         5.8283   -6.2629   24.1714 C.ar      1 UNK         0.0000 
     27 C27         6.8392   -2.0128   21.4323 C.ar      1 UNK         0.0000 
     28 C28         6.6930   -0.1731   19.9103 C.ar      1 UNK         0.0000 
     29 C29         5.4914    0.4843   20.2121 C.ar      1 UNK         0.0000 
     30 C30         4.8423    1.1730   19.1830 C.ar      1 UNK         0.0000 
     31 C31         5.4124    1.1734   17.8923 C.ar      1 UNK         0.0000 
     32 C32         7.1871   -0.1290   18.5870 C.ar      1 UNK         0.0000 
     33 N33         5.7254   -6.0496   22.8341 N.pl3     1 UNK         0.0000 
     34 N34         6.4827   -5.3475   24.9399 N.2       1 UNK         0.0000 
     35 N35         7.3979   -0.8288   20.9387 N.pl3     1 UNK         0.0000 
     36 N36         6.5609    0.5299   17.5908 N.ar      1 UNK         0.0000 
     37 Cl37       14.1644   -2.3187   23.4068 Cl        1 UNK         0.0000 
     38 H38        11.4139   -2.5936   22.7281 H         1 UNK         0.0000 
     39 H39        14.1462    0.4722   23.9850 H         1 UNK         0.0000 
     40 H40        13.5923    2.3477   22.2618 H         1 UNK         0.0000 
     41 H41        14.2666    3.1223   23.6684 H         1 UNK         0.0000 
     42 H42        12.0119    4.2076   21.9351 H         1 UNK         0.0000 
     43 H43        13.6692    4.7455   21.8739 H         1 UNK         0.0000 
     44 H44        14.5433    6.3130   23.4642 H         1 UNK         0.0000 
     45 H45        14.1149    7.9347   25.3024 H         1 UNK         0.0000 
     46 H46        11.9454    7.8930   26.5168 H         1 UNK         0.0000 
     47 H47        10.1829    6.2615   25.8598 H         1 UNK         0.0000 
     48 H48        10.6102    4.6398   24.0259 H         1 UNK         0.0000 
     49 H49        10.0060    1.4488   23.3647 H         1 UNK         0.0000 
     50 H50         9.2200   -2.8023   23.6398 H         1 UNK         0.0000 
     51 H51         7.4540   -3.5222   24.9530 H         1 UNK         0.0000 
     52 H52         5.9096   -2.2976   20.9596 H         1 UNK         0.0000 
     53 H53         5.0820    0.4762   21.2126 H         1 UNK         0.0000 
     54 H54         3.9200    1.6746   19.4159 H         1 UNK         0.0000 
     55 H55         4.9396    1.6991   17.0774 H         1 UNK         0.0000 
     56 H56         8.1120   -0.6197   18.3214 H         1 UNK         0.0000 
     57 H57         5.2544   -6.7680   22.3030 H         1 UNK         0.0000 
@<TRIPOS>BOND
     1    1    2 ar   
     2    1    7 2    
     3    1   35 ar   
     4    2    3 1    
     5    2   21 ar   
     6    3    4 ar   
     7    3   20 ar   
     8    4    5 ar   
     9    4   38 1    
    10    5    6 ar   
    11    5   37 1    
    12    6    9 ar   
    13    6   39 1    
    14    8    9 1    
    15    8   10 1    
    16    9   20 ar   
    17   10   11 1    
    18   10   40 1    
    19   10   41 1    
    20   11   14 1    
    21   11   42 1    
    22   11   43 1    
    23   12   24 2    
    24   13   26 2    
    25   14   15 ar   
    26   14   19 ar   
    27   15   16 ar   
    28   15   44 1    
    29   16   17 ar   
    30   16   45 1    
    31   17   18 ar   
    32   17   46 1    
    33   18   19 ar   
    34   18   47 1    
    35   19   48 1    
    36   20   49 1    
    37   21   22 ar   
    38   21   50 1    
    39   22   23 1    
    40   22   27 ar   
    41   23   24 ar   
    42   23   25 ar   
    43   24   33 ar   
    44   25   34 ar   
    45   25   51 1    
    46   26   33 ar   
    47   26   34 ar   
    48   27   35 ar   
    49   27   52 1    
    50   28   29 ar   
    51   28   32 ar   
    52   28   35 1    
    53   29   30 ar   
    54   29   53 1    
    55   30   31 ar   
    56   30   54 1    
    57   31   36 ar   
    58   31   55 1    
    59   32   36 ar   
    60   32   56 1    
    61   33   57 1    
@<TRIPOS>SUBSTRUCTURE
     1 UNK         1 GROUP             0       ****    0 ROOT    
