@<TRIPOS>MOLECULE
7M8Z_ligand1
58   61    1
SMALL
USER_CHARGES


@<TRIPOS>ATOM
      1 C1          8.4867   -0.3611   21.3124 C.ar      1 UNK         0.0000 
      2 C2          9.2174   -1.1327   22.3308 C.ar      1 UNK         0.0000 
      3 C3         10.5630   -0.7005   22.7594 C.ar      1 UNK         0.0000 
      4 C4         11.6317   -1.6160   22.8033 C.ar      1 UNK         0.0000 
      5 C5         12.9049   -1.1830   23.2135 C.ar      1 UNK         0.0000 
      6 C6         13.1226    0.1675   23.5565 C.ar      1 UNK         0.0000 
      7 O7          8.8672    0.7360   20.8937 O.2       1 UNK         0.0000 
      8 O8         12.3247    2.4104   23.8418 O.3       1 UNK         0.0000 
      9 N9          7.3337   -0.9151   20.8551 N.pl3     1 UNK         0.0000 
     10 C10        12.0630    1.0979   23.5100 C.ar      1 UNK         0.0000 
     11 C11        11.3989    3.3937   23.3872 C.3       1 UNK         0.0000 
     12 C12        11.9130    4.8301   23.5993 C.3       1 UNK         0.0000 
     13 O13         5.8777   -4.8640   20.8552 O.2       1 UNK         0.0000 
     14 O14         5.0562   -7.2875   24.6061 O.2       1 UNK         0.0000 
     15 C15        13.3032    5.1509   23.0060 C.3       1 UNK         0.0000 
     16 C16        13.4574    4.6952   21.5523 C.3       1 UNK         0.0000 
     17 C17        14.4156    4.5873   23.8841 C.3       1 UNK         0.0000 
     18 C18        10.7788    0.6420   23.1358 C.ar      1 UNK         0.0000 
     19 C19         8.6858   -2.2888   22.7989 C.ar      1 UNK         0.0000 
     20 C20         7.3837   -2.7810   22.3762 C.ar      1 UNK         0.0000 
     21 C21         6.7759   -3.9959   22.9225 C.ar      1 UNK         0.0000 
     22 C22         6.0388   -4.9537   22.0696 C.ar      1 UNK         0.0000 
     23 C23         6.9387   -4.3123   24.2388 C.ar      1 UNK         0.0000 
     24 C24         5.6021   -6.3155   24.0905 C.ar      1 UNK         0.0000 
     25 C25         6.7752   -2.0700   21.4108 C.ar      1 UNK         0.0000 
     26 C26         6.5872   -0.2755   19.8442 C.ar      1 UNK         0.0000 
     27 C27         5.3194    0.2508   20.1363 C.ar      1 UNK         0.0000 
     28 C28         4.6239    0.9025   19.1124 C.ar      1 UNK         0.0000 
     29 C29         5.2209    1.0020   17.8377 C.ar      1 UNK         0.0000 
     30 C30         7.0976   -0.1403   18.5369 C.ar      1 UNK         0.0000 
     31 N31         5.4861   -6.0532   22.7318 N.pl3     1 UNK         0.0000 
     32 N32         6.3740   -5.4240   24.8294 N.pl3     1 UNK         0.0000 
     33 N33         6.4330    0.4916   17.5504 N.ar      1 UNK         0.0000 
     34 O34        13.4585    6.5551   23.0290 O.3       1 UNK         0.0000 
     35 Cl35       14.1902   -2.3241   23.2965 Cl        1 UNK         0.0000 
     36 H36        11.4824   -2.6472   22.5203 H         1 UNK         0.0000 
     37 H37        14.1078    0.4947   23.8501 H         1 UNK         0.0000 
     38 H38        10.4576    3.2913   23.9296 H         1 UNK         0.0000 
     39 H39        11.1812    3.2388   22.3286 H         1 UNK         0.0000 
     40 H40        11.9095    5.0577   24.6663 H         1 UNK         0.0000 
     41 H41        11.1801    5.5036   23.1584 H         1 UNK         0.0000 
     42 H42        14.4090    5.0129   21.1255 H         1 UNK         0.0000 
     43 H43        13.4116    3.6108   21.4726 H         1 UNK         0.0000 
     44 H44        12.6575    5.0961   20.9378 H         1 UNK         0.0000 
     45 H45        15.3846    4.9745   23.5984 H         1 UNK         0.0000 
     46 H46        14.2498    4.8705   24.9212 H         1 UNK         0.0000 
     47 H47        14.4717    3.5041   23.8185 H         1 UNK         0.0000 
     48 H48         9.9393    1.3189   23.1262 H         1 UNK         0.0000 
     49 H49         9.2514   -2.8707   23.5132 H         1 UNK         0.0000 
     50 H50         7.4949   -3.6543   24.8905 H         1 UNK         0.0000 
     51 H51         5.8111   -2.3326   20.9998 H         1 UNK         0.0000 
     52 H52         4.8876    0.1646   21.1233 H         1 UNK         0.0000 
     53 H53         3.6443    1.2920   19.3286 H         1 UNK         0.0000 
     54 H54         4.7237    1.4876   17.0142 H         1 UNK         0.0000 
     55 H55         8.0583   -0.5509   18.2671 H         1 UNK         0.0000 
     56 H56         4.9558   -6.7078   22.1765 H         1 UNK         0.0000 
     57 H57         6.4811   -5.6025   25.8180 H         1 UNK         0.0000 
     58 H58        14.3180    6.7711   22.6997 H         1 UNK         0.0000 
@<TRIPOS>BOND
     1    1    2 ar   
     2    1    7 2    
     3    1    9 ar   
     4    2    3 1    
     5    2   19 ar   
     6    3    4 ar   
     7    3   18 ar   
     8    4    5 ar   
     9    4   36 1    
    10    5    6 ar   
    11    5   35 1    
    12    6   10 ar   
    13    6   37 1    
    14    8   10 1    
    15    8   11 1    
    16    9   25 ar   
    17    9   26 1    
    18   10   18 ar   
    19   11   12 1    
    20   11   38 1    
    21   11   39 1    
    22   12   15 1    
    23   12   40 1    
    24   12   41 1    
    25   13   22 2    
    26   14   24 2    
    27   15   16 1    
    28   15   17 1    
    29   15   34 1    
    30   16   42 1    
    31   16   43 1    
    32   16   44 1    
    33   17   45 1    
    34   17   46 1    
    35   17   47 1    
    36   18   48 1    
    37   19   20 ar   
    38   19   49 1    
    39   20   21 1    
    40   20   25 ar   
    41   21   22 ar   
    42   21   23 ar   
    43   22   31 ar   
    44   23   32 ar   
    45   23   50 1    
    46   24   31 ar   
    47   24   32 ar   
    48   25   51 1    
    49   26   27 ar   
    50   26   30 ar   
    51   27   28 ar   
    52   27   52 1    
    53   28   29 ar   
    54   28   53 1    
    55   29   33 ar   
    56   29   54 1    
    57   30   33 ar   
    58   30   55 1    
    59   31   56 1    
    60   32   57 1    
    61   34   58 1    
@<TRIPOS>SUBSTRUCTURE
     1 UNK         1 GROUP             0       ****    0 ROOT    
