@<TRIPOS>MOLECULE
7M90_ligand5
60   64    1
SMALL
USER_CHARGES


@<TRIPOS>ATOM
      1 C1          8.5229   -0.2098   21.3923 C.ar      1 UNK         0.0000 
      2 C2          6.6164   -0.0732   19.9392 C.ar      1 UNK         0.0000 
      3 C3          7.1283    0.0711   18.6345 C.ar      1 UNK         0.0000 
      4 C4          5.2332    1.1813   17.9335 C.ar      1 UNK         0.0000 
      5 C5          4.6399    1.0908   19.2115 C.ar      1 UNK         0.0000 
      6 C6          5.3438    0.4462   20.2350 C.ar      1 UNK         0.0000 
      7 C7          6.7921   -1.9068   21.4569 C.ar      1 UNK         0.0000 
      8 C8          7.4007   -2.6509   22.3955 C.ar      1 UNK         0.0000 
      9 C9          6.8050   -3.8880   22.8988 C.ar      1 UNK         0.0000 
     10 C10         7.0124   -4.3183   24.1977 C.ar      1 UNK         0.0000 
     11 C11         5.7381   -6.2325   24.0369 C.ar      1 UNK         0.0000 
     12 C12         8.7068   -2.1807   22.8273 C.ar      1 UNK         0.0000 
     13 C13         9.2412   -1.0175   22.3860 C.ar      1 UNK         0.0000 
     14 C14        10.5877   -0.6164   22.8033 C.ar      1 UNK         0.0000 
     15 C15        11.6814   -1.4301   22.4619 C.ar      1 UNK         0.0000 
     16 C16        12.9784   -1.0353   22.8208 C.ar      1 UNK         0.0000 
     17 C17        12.8980    6.5983   24.4742 C.3       1 UNK         0.0000 
     18 C18        13.5714    4.6190   23.2369 C.3       1 UNK         0.0000 
     19 C19        13.8812    5.4732   21.9999 C.3       1 UNK         0.0000 
     20 C20        13.6681    7.4548   23.4575 C.2       1 UNK         0.0000 
     21 C21         6.0352   -4.8328   22.0701 C.ar      1 UNK         0.0000 
     22 C22        13.1847    0.1664   23.5252 C.ar      1 UNK         0.0000 
     23 C23        12.0963    0.9912   23.8727 C.ar      1 UNK         0.0000 
     24 C24        11.3632    3.1349   24.6705 C.3       1 UNK         0.0000 
     25 C25        12.0077    4.4593   25.1146 C.3       1 UNK         0.0000 
     26 C26        10.7890    0.5902   23.5044 C.ar      1 UNK         0.0000 
     27 N27         7.3559   -0.7339   20.9369 N.pl3     1 UNK         0.0000 
     28 N28         6.4502    0.6849   17.6466 N.ar      1 UNK         0.0000 
     29 N29         5.5411   -5.9122   22.7315 N.pl3     1 UNK         0.0000 
     30 N30         6.5352   -5.4289   24.7961 N.2       1 UNK         0.0000 
     31 N31        12.4901    5.2581   23.9896 N.3       1 UNK         0.0000 
     32 N32        14.1121    6.8686   22.3399 N.am      1 UNK         0.0000 
     33 O33         8.9378    0.8824   20.9953 O.2       1 UNK         0.0000 
     34 O34         5.8319   -4.7021   20.8647 O.2       1 UNK         0.0000 
     35 O35         5.1850   -7.2448   24.4595 O.2       1 UNK         0.0000 
     36 O36        12.3806    2.1479   24.5628 O.3       1 UNK         0.0000 
     37 O37        13.8791    8.6429   23.6896 O.2       1 UNK         0.0000 
     38 Cl38       14.3034   -2.0509   22.4143 Cl        1 UNK         0.0000 
     39 H39         8.1022   -0.3165   18.3739 H         1 UNK         0.0000 
     40 H40         4.7327    1.6508   17.1018 H         1 UNK         0.0000 
     41 H41         3.6573    1.4753   19.4251 H         1 UNK         0.0000 
     42 H42         4.9141    0.3530   21.2212 H         1 UNK         0.0000 
     43 H43         5.8269   -2.1565   21.0381 H         1 UNK         0.0000 
     44 H44         7.5979   -3.6533   24.8678 H         1 UNK         0.0000 
     45 H45         9.2798   -2.7847   23.5172 H         1 UNK         0.0000 
     46 H46        11.5294   -2.3522   21.9210 H         1 UNK         0.0000 
     47 H47        12.0148    7.1492   24.7992 H         1 UNK         0.0000 
     48 H48        13.5417    6.4920   25.3487 H         1 UNK         0.0000 
     49 H49        14.4565    4.4932   23.8633 H         1 UNK         0.0000 
     50 H50        13.2794    3.6314   22.8878 H         1 UNK         0.0000 
     51 H51        13.0419    5.4238   21.3074 H         1 UNK         0.0000 
     52 H52        14.7530    5.0815   21.4752 H         1 UNK         0.0000 
     53 H53        14.1880    0.4606   23.7961 H         1 UNK         0.0000 
     54 H54        10.8253    3.2791   23.7313 H         1 UNK         0.0000 
     55 H55        10.6432    2.8065   25.4196 H         1 UNK         0.0000 
     56 H56        12.8094    4.2897   25.8301 H         1 UNK         0.0000 
     57 H57        11.2443    5.0420   25.6318 H         1 UNK         0.0000 
     58 H58         9.9277    1.1910   23.7573 H         1 UNK         0.0000 
     59 H59         4.9848   -6.5607   22.1944 H         1 UNK         0.0000 
     60 H60        14.6163    7.4380   21.6727 H         1 UNK         0.0000 
@<TRIPOS>BOND
     1    1   13 ar   
     2    1   27 ar   
     3    1   33 2    
     4    2    3 ar   
     5    2    6 ar   
     6    2   27 1    
     7    3   28 ar   
     8    3   39 1    
     9    4    5 ar   
    10    4   28 ar   
    11    4   40 1    
    12    5    6 ar   
    13    5   41 1    
    14    6   42 1    
    15    7    8 ar   
    16    7   27 ar   
    17    7   43 1    
    18    8    9 1    
    19    8   12 ar   
    20    9   10 ar   
    21    9   21 ar   
    22   10   30 ar   
    23   10   44 1    
    24   11   29 ar   
    25   11   30 ar   
    26   11   35 2    
    27   12   13 ar   
    28   12   45 1    
    29   13   14 1    
    30   14   15 ar   
    31   14   26 ar   
    32   15   16 ar   
    33   15   46 1    
    34   16   22 ar   
    35   16   38 1    
    36   17   20 1    
    37   17   31 1    
    38   17   47 1    
    39   17   48 1    
    40   18   19 1    
    41   18   31 1    
    42   18   49 1    
    43   18   50 1    
    44   19   32 1    
    45   19   51 1    
    46   19   52 1    
    47   20   32 am   BACKBONE|DICT|INTERRES
    48   20   37 2    
    49   21   29 ar   
    50   21   34 2    
    51   22   23 ar   
    52   22   53 1    
    53   23   26 ar   
    54   23   36 1    
    55   24   25 1    
    56   24   36 1    
    57   24   54 1    
    58   24   55 1    
    59   25   31 1    
    60   25   56 1    
    61   25   57 1    
    62   26   58 1    
    63   29   59 1    
    64   32   60 1    
@<TRIPOS>SUBSTRUCTURE
     1 UNK         1 GROUP             0       ****    0 ROOT    
