@<TRIPOS>MOLECULE
7M91_ligand1
51   54    1
SMALL
USER_CHARGES


@<TRIPOS>ATOM
      1 C1          6.7843   -1.8284   21.5900 C.ar      1 UNK         0.0000 
      2 C2          4.7047    1.2302   19.2956 C.ar      1 UNK         0.0000 
      3 C3          5.2545    1.2445   17.9960 C.ar      1 UNK         0.0000 
      4 C4          7.0801    0.0001   18.6611 C.ar      1 UNK         0.0000 
      5 C5          8.5337   -0.1628   21.4100 C.ar      1 UNK         0.0000 
      6 C6          6.6096   -0.0640   19.9883 C.ar      1 UNK         0.0000 
      7 C7          5.9912   -4.6749   22.3336 C.ar      1 UNK         0.0000 
      8 C8          9.2572   -0.9053   22.4556 C.ar      1 UNK         0.0000 
      9 C9         10.6172   -0.4692   22.8445 C.ar      1 UNK         0.0000 
     10 C10        10.8754    0.8940   23.1204 C.ar      1 UNK         0.0000 
     11 C11         6.9061   -3.9845   24.4785 C.ar      1 UNK         0.0000 
     12 C12        11.8580    3.6836   22.9065 C.3       1 UNK         0.0000 
     13 C13        11.6677   -1.4036   22.9368 C.ar      1 UNK         0.0000 
     14 C14        12.8380    4.1272   21.8166 C.3       1 UNK         0.0000 
     15 C15        14.0019    4.9854   22.3170 C.3       1 UNK         0.0000 
     16 C16        13.2127    0.3895   23.5365 C.ar      1 UNK         0.0000 
     17 C17         5.5034   -5.9486   24.3985 C.ar      1 UNK         0.0000 
     18 C18         8.7064   -2.0373   22.9669 C.ar      1 UNK         0.0000 
     19 C19        12.1797    1.3428   23.4263 C.ar      1 UNK         0.0000 
     20 C20        12.9582   -0.9747   23.2952 C.ar      1 UNK         0.0000 
     21 C21         5.3934    0.5585   20.3108 C.ar      1 UNK         0.0000 
     22 C22         7.3913   -2.5233   22.5689 C.ar      1 UNK         0.0000 
     23 C23         6.7550   -3.7082   23.1540 C.ar      1 UNK         0.0000 
     24 F24        14.8742    5.0782   21.3178 F         1 UNK         0.0000 
     25 F25        13.5869    6.2080   22.6481 F         1 UNK         0.0000 
     26 F26        14.6044    4.4247   23.3657 F         1 UNK         0.0000 
     27 N27         7.3594   -0.7017   20.9954 N.pl3     1 UNK         0.0000 
     28 N28         6.4129    0.6369   17.6790 N.ar      1 UNK         0.0000 
     29 N29         5.3976   -5.7324   23.0302 N.pl3     1 UNK         0.0000 
     30 N30         6.3063   -5.0572   25.1061 N.pl3     1 UNK         0.0000 
     31 O31         8.9417    0.8982   20.9299 O.2       1 UNK         0.0000 
     32 O32         5.8475   -4.6292   21.1136 O.2       1 UNK         0.0000 
     33 O33         4.9316   -6.8865   24.9485 O.2       1 UNK         0.0000 
     34 O34        12.4832    2.6610   23.6853 O.3       1 UNK         0.0000 
     35 Cl35       14.2233   -2.1336   23.4422 Cl        1 UNK         0.0000 
     36 H36         5.8098   -2.0800   21.1980 H         1 UNK         0.0000 
     37 H37         3.7795    1.7198   19.5422 H         1 UNK         0.0000 
     38 H38         4.7682    1.7501   17.1783 H         1 UNK         0.0000 
     39 H39         8.0164   -0.4596   18.3814 H         1 UNK         0.0000 
     40 H40        10.0534    1.5939   23.1049 H         1 UNK         0.0000 
     41 H41         7.4804   -3.3197   25.1088 H         1 UNK         0.0000 
     42 H42        10.9244    3.3798   22.4383 H         1 UNK         0.0000 
     43 H43        11.6133    4.5235   23.5562 H         1 UNK         0.0000 
     44 H44        11.4910   -2.4485   22.7302 H         1 UNK         0.0000 
     45 H45        12.3149    4.6849   21.0451 H         1 UNK         0.0000 
     46 H46        13.2378    3.2441   21.3266 H         1 UNK         0.0000 
     47 H47        14.2091    0.7116   23.7984 H         1 UNK         0.0000 
     48 H48         9.2664   -2.6041   23.6963 H         1 UNK         0.0000 
     49 H49         5.0085    0.5484   21.3186 H         1 UNK         0.0000 
     50 H50         4.8578   -6.3999   22.4987 H         1 UNK         0.0000 
     51 H51         6.4115   -5.2057   26.0997 H         1 UNK         0.0000 
@<TRIPOS>BOND
     1    1   22 ar   
     2    1   27 ar   
     3    1   36 1    
     4    2    3 ar   
     5    2   21 ar   
     6    2   37 1    
     7    3   28 ar   
     8    3   38 1    
     9    4    6 ar   
    10    4   28 ar   
    11    4   39 1    
    12    5    8 ar   
    13    5   27 ar   
    14    5   31 2    
    15    6   21 ar   
    16    6   27 1    
    17    7   23 ar   
    18    7   29 ar   
    19    7   32 2    
    20    8    9 1    
    21    8   18 ar   
    22    9   10 ar   
    23    9   13 ar   
    24   10   19 ar   
    25   10   40 1    
    26   11   23 ar   
    27   11   30 ar   
    28   11   41 1    
    29   12   14 1    
    30   12   34 1    
    31   12   42 1    
    32   12   43 1    
    33   13   20 ar   
    34   13   44 1    
    35   14   15 1    
    36   14   45 1    
    37   14   46 1    
    38   15   24 1    
    39   15   25 1    
    40   15   26 1    
    41   16   19 ar   
    42   16   20 ar   
    43   16   47 1    
    44   17   29 ar   
    45   17   30 ar   
    46   17   33 2    
    47   18   22 ar   
    48   18   48 1    
    49   19   34 1    
    50   20   35 1    
    51   21   49 1    
    52   22   23 1    
    53   29   50 1    
    54   30   51 1    
@<TRIPOS>SUBSTRUCTURE
     1 UNK         1 GROUP             0       ****    0 ROOT    
