@<TRIPOS>MOLECULE
7N44_ligand1
54   58    1
SMALL
USER_CHARGES


@<TRIPOS>ATOM
      1 C1          8.4777   -0.2389   21.0732 C.ar      1 UNK         0.0000 
      2 C2          9.2306   -1.0407   22.0510 C.ar      1 UNK         0.0000 
      3 N3          6.7455   -5.7279   24.1355 N.pl3     1 UNK         0.0000 
      4 N4          7.3146   -0.7789   20.6255 N.pl3     1 UNK         0.0000 
      5 C5         12.8750   -1.0484   23.0956 C.ar      1 UNK         0.0000 
      6 C6         13.0629    0.3010   23.4386 C.ar      1 UNK         0.0000 
      7 C7         12.0091    1.2293   23.3366 C.ar      1 UNK         0.0000 
      8 C8         11.3269    3.5375   23.3513 C.3       1 UNK         0.0000 
      9 C9         11.7961    4.8866   23.8010 C.2       1 UNK         0.0000 
     10 C10        12.9335    5.5537   23.4042 C.2       1 UNK         0.0000 
     11 C11        13.9447    5.1196   22.3958 C.3       1 UNK         0.0000 
     12 C12        11.6242    6.7248   25.1127 C.2       1 UNK         0.0000 
     13 C13         8.7428   -2.2480   22.4307 C.ar      1 UNK         0.0000 
     14 C14         7.4596   -2.7632   21.9739 C.ar      1 UNK         0.0000 
     15 C15         6.2138   -4.9675   21.4750 C.ar      1 UNK         0.0000 
     16 C16         7.1811   -4.5109   23.6585 C.ar      1 UNK         0.0000 
     17 C17         6.0108   -6.5925   23.3318 C.ar      1 UNK         0.0000 
     18 C18         6.8027   -1.9920   21.0913 C.ar      1 UNK         0.0000 
     19 C19         5.2928    0.4516   20.0591 C.ar      1 UNK         0.0000 
     20 C20         4.5688    1.1764   19.1049 C.ar      1 UNK         0.0000 
     21 C21         5.1146    1.3258   17.8135 C.ar      1 UNK         0.0000 
     22 C22        10.7447    0.7682   22.9035 C.ar      1 UNK         0.0000 
     23 C23         6.9359   -4.0635   22.3967 C.ar      1 UNK         0.0000 
     24 C24         6.5353   -0.0851   19.6833 C.ar      1 UNK         0.0000 
     25 C25         7.0013    0.1161   18.3679 C.ar      1 UNK         0.0000 
     26 C26        10.5530   -0.5813   22.5259 C.ar      1 UNK         0.0000 
     27 C27        11.6272   -1.4896   22.6262 C.ar      1 UNK         0.0000 
     28 N28        11.0399    5.5878   24.7472 N.2       1 UNK         0.0000 
     29 N29         5.7916   -6.1832   22.0222 N.pl3     1 UNK         0.0000 
     30 N30         6.3040    0.8111   17.4530 N.ar      1 UNK         0.0000 
     31 O31         8.8528    0.8652   20.6738 O.2       1 UNK         0.0000 
     32 O32        12.2812    2.5358   23.6764 O.3       1 UNK         0.0000 
     33 O33         5.9606   -4.7418   20.2915 O.2       1 UNK         0.0000 
     34 O34         5.5762   -7.6567   23.7608 O.2       1 UNK         0.0000 
     35 S35        13.1175    7.0609   24.2672 S.3       1 UNK         0.0000 
     36 Cl36       14.1748   -2.1673   23.2457 Cl        1 UNK         0.0000 
     37 H37         6.9191   -6.0054   25.0916 H         1 UNK         0.0000 
     38 H38        14.0320    0.6303   23.7663 H         1 UNK         0.0000 
     39 H39        11.1662    3.5316   22.2752 H         1 UNK         0.0000 
     40 H40        10.3720    3.3108   23.8289 H         1 UNK         0.0000 
     41 H41        14.5771    5.9514   22.0847 H         1 UNK         0.0000 
     42 H42        14.5871    4.3418   22.8048 H         1 UNK         0.0000 
     43 H43        13.4574    4.7170   21.5077 H         1 UNK         0.0000 
     44 H44        11.1651    7.3707   25.8464 H         1 UNK         0.0000 
     45 H45         9.3267   -2.8500   23.1102 H         1 UNK         0.0000 
     46 H46         7.7081   -3.8839   24.3620 H         1 UNK         0.0000 
     47 H47         5.8444   -2.2557   20.6667 H         1 UNK         0.0000 
     48 H48         4.9077    0.3244   21.0602 H         1 UNK         0.0000 
     49 H49         3.6178    1.5951   19.3862 H         1 UNK         0.0000 
     50 H50         4.5977    1.8645   17.0382 H         1 UNK         0.0000 
     51 H51         9.9082    1.4449   22.8533 H         1 UNK         0.0000 
     52 H52         7.9545   -0.2778   18.0454 H         1 UNK         0.0000 
     53 H53        11.5035   -2.5247   22.3448 H         1 UNK         0.0000 
     54 H54         5.2719   -6.8099   21.4252 H         1 UNK         0.0000 
@<TRIPOS>BOND
     1    1    2 ar   
     2    1    4 ar   
     3    1   31 2    
     4    2   13 ar   
     5    2   26 1    
     6    3   16 ar   
     7    3   17 ar   
     8    3   37 1    
     9    4   18 ar   
    10    4   24 1    
    11    5    6 ar   
    12    5   27 ar   
    13    5   36 1    
    14    6    7 ar   
    15    6   38 1    
    16    7   22 ar   
    17    7   32 1    
    18    8    9 1    
    19    8   32 1    
    20    8   39 1    
    21    8   40 1    
    22    9   10 2    
    23    9   28 1    
    24   10   11 1    
    25   10   35 1    
    26   11   41 1    
    27   11   42 1    
    28   11   43 1    
    29   12   28 2    
    30   12   35 1    
    31   12   44 1    
    32   13   14 ar   
    33   13   45 1    
    34   14   18 ar   
    35   14   23 1    
    36   15   23 ar   
    37   15   29 ar   
    38   15   33 2    
    39   16   23 ar   
    40   16   46 1    
    41   17   29 ar   
    42   17   34 2    
    43   18   47 1    
    44   19   20 ar   
    45   19   24 ar   
    46   19   48 1    
    47   20   21 ar   
    48   20   49 1    
    49   21   30 ar   
    50   21   50 1    
    51   22   26 ar   
    52   22   51 1    
    53   24   25 ar   
    54   25   30 ar   
    55   25   52 1    
    56   26   27 ar   
    57   27   53 1    
    58   29   54 1    
@<TRIPOS>SUBSTRUCTURE
     1 UNK         1 GROUP             0       ****    0 ROOT    
