@<TRIPOS>MOLECULE
7N8C_ligand1
37   39    1
SMALL
USER_CHARGES


@<TRIPOS>ATOM
      1 C1          5.6202   -0.6552   20.3167 C.ar      1 UNK         0.0000 
      2 C2          5.9085   -1.8935   21.0049 C.2       1 UNK         0.0000 
      3 C3          7.4539   -0.5594   22.5025 C.3       1 UNK         0.0000 
      4 C4          8.9602   -0.8586   22.4628 C.3       1 UNK         0.0000 
      5 C5          8.4593   -3.2174   23.0262 C.3       1 UNK         0.0000 
      6 C6          6.9585   -2.8744   23.0209 C.3       1 UNK         0.0000 
      7 C7         12.1476   -3.2679   25.3085 C.ar      1 UNK         0.0000 
      8 C8         12.9800   -1.6603   23.6823 C.ar      1 UNK         0.0000 
      9 C9         10.5852   -2.2062   23.7469 C.ar      1 UNK         0.0000 
     10 C10        10.8441   -3.0973   24.8141 C.ar      1 UNK         0.0000 
     11 C11        13.2174   -2.5394   24.7598 C.ar      1 UNK         0.0000 
     12 C12        11.6741   -1.4977   23.1832 C.ar      1 UNK         0.0000 
     13 C13         4.4809    1.3830   20.1980 C.ar      1 UNK         0.0000 
     14 C14         6.0510    0.8370   18.4386 C.ar      1 UNK         0.0000 
     15 C15         6.2903   -0.4223   19.1215 C.ar      1 UNK         0.0000 
     16 N16         4.7297    0.2205   20.8476 N.2       1 UNK         0.0000 
     17 N17         5.1631    1.6310   19.0638 N.pl3     1 UNK         0.0000 
     18 N18         6.7008   -1.7618   22.1001 N.am      1 UNK         0.0000 
     19 N19         9.2663   -2.0245   23.2858 N.pl3     1 UNK         0.0000 
     20 O20         3.6707    2.2262   20.5765 O.2       1 UNK         0.0000 
     21 O21         6.5935    1.2033   17.4028 O.2       1 UNK         0.0000 
     22 O22         5.4219   -2.9693   20.6536 O.2       1 UNK         0.0000 
     23 Cl23       14.2673   -0.7631   22.9674 Cl        1 UNK         0.0000 
     24 Cl24       14.7991   -2.7311   25.4268 Cl        1 UNK         0.0000 
     25 H25         7.2650    0.3273   21.9012 H         1 UNK         0.0000 
     26 H26         7.1611   -0.2954   23.5190 H         1 UNK         0.0000 
     27 H27         9.4992    0.0093   22.8378 H         1 UNK         0.0000 
     28 H28         9.2878   -1.0367   21.4372 H         1 UNK         0.0000 
     29 H29         8.7512   -3.6303   22.0619 H         1 UNK         0.0000 
     30 H30         8.6340   -3.9997   23.7616 H         1 UNK         0.0000 
     31 H31         6.6459   -2.5774   24.0234 H         1 UNK         0.0000 
     32 H32         6.3796   -3.7679   22.7852 H         1 UNK         0.0000 
     33 H33        12.3243   -3.9620   26.1157 H         1 UNK         0.0000 
     34 H34        10.0420   -3.6468   25.2812 H         1 UNK         0.0000 
     35 H35        11.5284   -0.8187   22.3568 H         1 UNK         0.0000 
     36 H36         6.9961   -1.1288   18.7116 H         1 UNK         0.0000 
     37 H37         4.9689    2.5143   18.6157 H         1 UNK         0.0000 
@<TRIPOS>BOND
     1    1    2 1    
     2    1   15 ar   
     3    1   16 ar   
     4    2   18 am   BACKBONE|DICT|INTERRES
     5    2   22 2    
     6    3    4 1    
     7    3   18 1    
     8    3   25 1    
     9    3   26 1    
    10    4   19 1    
    11    4   27 1    
    12    4   28 1    
    13    5    6 1    
    14    5   19 1    
    15    5   29 1    
    16    5   30 1    
    17    6   18 1    
    18    6   31 1    
    19    6   32 1    
    20    7   10 ar   
    21    7   11 ar   
    22    7   33 1    
    23    8   11 ar   
    24    8   12 ar   
    25    8   23 1    
    26    9   10 ar   
    27    9   12 ar   
    28    9   19 1    
    29   10   34 1    
    30   11   24 1    
    31   12   35 1    
    32   13   16 ar   
    33   13   17 ar   
    34   13   20 2    
    35   14   15 ar   
    36   14   17 ar   
    37   14   21 2    
    38   15   36 1    
    39   17   37 1    
@<TRIPOS>SUBSTRUCTURE
     1 UNK         1 GROUP             0       ****    0 ROOT    
