@<TRIPOS>MOLECULE
7NT3_ligand
53   55    1
SMALL
USER_CHARGES


@<TRIPOS>ATOM
      1 C1          9.8337    4.2186   25.7548 C.2       1 UQZ         0.0000 
      2 O2          9.5576    1.2035   21.2634 O.2       1 UQZ         0.0000 
      3 O3         14.5967   -1.3754   24.3472 O.3       1 UQZ         0.0000 
      4 C4          6.4852    3.2868   23.7268 C.3       1 UQZ         0.0000 
      5 C5          6.0836    4.3189   22.6507 C.3       1 UQZ         0.0000 
      6 C6          7.0535    5.5025   22.5342 C.3       1 UQZ         0.0000 
      7 C7          7.5519    1.2246   22.5972 C.3       1 UQZ         0.0000 
      8 C8          8.8451    0.5752   22.0452 C.2       1 UQZ         0.0000 
      9 C9         10.2301   -1.4529   21.8650 C.3       1 UQZ         0.0000 
     10 C10        11.1793   -1.8504   22.9669 C.ar      1 UQZ         0.0000 
     11 C11        10.7674   -2.8429   23.8894 C.ar      1 UQZ         0.0000 
     12 C12        11.6427   -3.2950   24.8968 C.ar      1 UQZ         0.0000 
     13 C13        12.9202   -2.7181   24.9562 C.ar      1 UQZ         0.0000 
     14 C2          8.8729    3.4179   25.2592 C.2       1 UQZ         0.0000 
     15 C3          8.9072    2.9855   23.8660 C.2       1 UQZ         0.0000 
     16 C14        13.3181   -1.7363   24.0729 C.ar      1 UQZ         0.0000 
     17 C15        12.4666   -1.2659   23.0583 C.ar      1 UQZ         0.0000 
     18 O1          9.9705    2.9416   23.2522 O.2       1 UQZ         0.0000 
     19 N1          7.7088    2.5220   23.3761 N.am      1 UQZ         0.0000 
     20 N2          9.0914   -0.7006   22.3681 N.am      1 UQZ         0.0000 
     21 C16        15.0156   -2.2358   25.3760 C.3       1 UQZ         0.0000 
     22 O4         13.9322   -3.0079   25.8088 O.3       1 UQZ         0.0000 
     23 C17         6.5137    1.1450   21.4525 C.ar      1 UQZ         0.0000 
     24 C18         5.1276    1.2889   21.7241 C.ar      1 UQZ         0.0000 
     25 C19         4.1365    1.1763   20.7381 C.ar      1 UQZ         0.0000 
     26 C20         4.4761    0.7802   19.4461 C.ar      1 UQZ         0.0000 
     27 C21         5.8107    0.5588   19.1285 C.ar      1 UQZ         0.0000 
     28 O5          6.1208    0.1229   17.8770 O.3       1 UQZ         0.0000 
     29 C22         6.8060    0.7724   20.0972 C.ar      1 UQZ         0.0000 
     30 H1_1        9.8143    4.5224   26.7908 H         1 UQZ         0.0000 
     31 H1_2       10.6502    4.5829   25.1479 H         1 UQZ         0.0000 
     32 H4_1        5.6805    2.6171   23.9968 H         1 UQZ         0.0000 
     33 H4_2        6.5646    3.8647   24.6442 H         1 UQZ         0.0000 
     34 H5_1        5.0955    4.7071   22.9010 H         1 UQZ         0.0000 
     35 H5_2        5.9775    3.8538   21.6716 H         1 UQZ         0.0000 
     36 H6_1        6.6546    6.2580   21.8569 H         1 UQZ         0.0000 
     37 H6_2        7.2165    5.9814   23.5002 H         1 UQZ         0.0000 
     38 H6_3        8.0217    5.1890   22.1398 H         1 UQZ         0.0000 
     39 HC7         7.2014    0.5392   23.3696 H         1 UQZ         0.0000 
     40 H9_1        9.8510   -2.3548   21.3842 H         1 UQZ         0.0000 
     41 H9_2       10.7810   -0.9120   21.1011 H         1 UQZ         0.0000 
     42 HC11        9.7858   -3.2843   23.8068 H         1 UQZ         0.0000 
     43 HC12       11.3489   -4.0717   25.5866 H         1 UQZ         0.0000 
     44 HC2         8.0928    3.0790   25.9248 H         1 UQZ         0.0000 
     45 HC15       12.7948   -0.5078   22.3618 H         1 UQZ         0.0000 
     46 HN2         8.4498   -1.1820   22.9800 H         1 UQZ         0.0000 
     47 H161       15.4304   -1.6697   26.2025 H         1 UQZ         0.0000 
     48 H162       15.7757   -2.9077   24.9890 H         1 UQZ         0.0000 
     49 HC18        4.7594    1.4613   22.7160 H         1 UQZ         0.0000 
     50 HC19        3.1019    1.3575   20.9780 H         1 UQZ         0.0000 
     51 HC20        3.7168    0.6536   18.6999 H         1 UQZ         0.0000 
     52 HO5         7.0451    0.0148   17.7098 H         1 UQZ         0.0000 
     53 HC22        7.8061    0.5840   19.7452 H         1 UQZ         0.0000 
@<TRIPOS>BOND
     1    1   14 2    
     2    1   30 1    
     3    1   31 1    
     4    2    8 2    
     5    3   16 1    
     6    3   21 1    
     7    4    5 1    
     8    4   19 1    
     9    4   32 1    
    10    4   33 1    
    11    5    6 1    
    12    5   34 1    
    13    5   35 1    
    14    6   36 1    
    15    6   37 1    
    16    6   38 1    
    17    7    8 1    
    18    7   19 1    
    19    7   23 1    
    20    7   39 1    
    21    8   20 am   BACKBONE|DICT|INTERRES
    22    9   10 1    
    23    9   20 1    
    24    9   40 1    
    25    9   41 1    
    26   10   11 ar   
    27   10   17 ar   
    28   11   12 ar   
    29   11   42 1    
    30   12   13 ar   
    31   12   43 1    
    32   13   16 ar   
    33   13   22 1    
    34   14   15 1    
    35   14   44 1    
    36   15   18 2    
    37   15   19 am   BACKBONE|DICT|INTERRES
    38   16   17 ar   
    39   17   45 1    
    40   20   46 1    
    41   21   22 1    
    42   21   47 1    
    43   21   48 1    
    44   23   24 ar   
    45   23   29 ar   
    46   24   25 ar   
    47   24   49 1    
    48   25   26 ar   
    49   25   50 1    
    50   26   27 ar   
    51   26   51 1    
    52   27   28 1    
    53   27   29 ar   
    54   28   52 1    
    55   29   53 1    
@<TRIPOS>SUBSTRUCTURE
     1 UQZ         1 GROUP             0 B     ****    0 ROOT    
