@<TRIPOS>MOLECULE
7O46_ligand1
43   47    1
SMALL
USER_CHARGES


@<TRIPOS>ATOM
      1 C1         11.0042   -1.2630   23.4629 C.3       1 UNK         0.0000 
      2 C2          4.5389    1.0660   19.3111 C.ar      1 UNK         0.0000 
      3 C3         12.3486   -0.5571   23.4726 C.3       1 UNK         0.0000 
      4 C4         13.5841   -1.2646   22.8926 C.3       1 UNK         0.0000 
      5 C5          6.5353   -0.0258   20.1183 C.ar      1 UNK         0.0000 
      6 C6         13.9597   -1.6652   24.3188 C.3       1 UNK         0.0000 
      7 C7         13.0998   -0.4936   24.7982 C.3       1 UNK         0.0000 
      8 C8         10.4259   -1.7178   22.1195 C.3       1 UNK         0.0000 
      9 C9          8.5539   -0.0953   21.4478 C.2       1 UNK         0.0000 
     10 C10         6.8525   -0.3462   18.7835 C.ar      1 UNK         0.0000 
     11 C11         4.9102    0.6118   18.0247 C.ar      1 UNK         0.0000 
     12 N12         8.0018   -1.9454   22.6825 N.am      1 UNK         0.0000 
     13 N13         7.3358   -0.5492   21.1490 N.am      1 UNK         0.0000 
     14 C14         9.7263   -0.4542   23.7521 C.3       1 UNK         0.0000 
     15 N15         6.0515   -0.0438   17.7486 N.ar      1 UNK         0.0000 
     16 O16         5.9274   -2.2572   21.7794 O.2       1 UNK         0.0000 
     17 C17         6.9908   -1.6416   21.8607 C.2       1 UNK         0.0000 
     18 C18         9.1113   -1.0395   22.4828 C.3       1 UNK         0.0000 
     19 O19         9.1267    0.8985   20.9976 O.2       1 UNK         0.0000 
     20 C20         3.3636    1.8153   19.5438 C.ar      1 UNK         0.0000 
     21 C21         3.0359    2.2525   20.8373 C.ar      1 UNK         0.0000 
     22 C22         3.8724    1.9244   21.9166 C.ar      1 UNK         0.0000 
     23 C23         5.0357    1.1631   21.6989 C.ar      1 UNK         0.0000 
     24 C24         5.3792    0.7389   20.3952 C.ar      1 UNK         0.0000 
     25 H25        11.0407   -2.1291   24.1268 H         1 UNK         0.0000 
     26 H26        12.2455    0.4323   23.0266 H         1 UNK         0.0000 
     27 H27        14.3000   -0.5709   22.4496 H         1 UNK         0.0000 
     28 H28        13.3707   -2.1025   22.2274 H         1 UNK         0.0000 
     29 H29        15.0149   -1.5835   24.5716 H         1 UNK         0.0000 
     30 H30        13.5588   -2.6423   24.5859 H         1 UNK         0.0000 
     31 H31        12.4910   -0.6888   25.6781 H         1 UNK         0.0000 
     32 H32        13.6520    0.4345   24.8890 H         1 UNK         0.0000 
     33 H33        10.3567   -2.7983   22.0226 H         1 UNK         0.0000 
     34 H34        10.9342   -1.2714   21.2645 H         1 UNK         0.0000 
     35 H35         7.7430   -0.9083   18.5431 H         1 UNK         0.0000 
     36 H36         4.2712    0.7481   17.1722 H         1 UNK         0.0000 
     37 H37         8.0176   -2.7225   23.3257 H         1 UNK         0.0000 
     38 H38         9.8775    0.6254   23.7088 H         1 UNK         0.0000 
     39 H39         9.2267   -0.7472   24.6772 H         1 UNK         0.0000 
     40 H40         2.7083    2.0990   18.7415 H         1 UNK         0.0000 
     41 H41         2.1442    2.8412   20.9983 H         1 UNK         0.0000 
     42 H42         3.6235    2.2606   22.9129 H         1 UNK         0.0000 
     43 H43         5.6663    0.9247   22.5418 H         1 UNK         0.0000 
@<TRIPOS>BOND
     1    1    3 1    
     2    1    8 1    
     3    1   14 1    
     4    1   25 1    
     5    2   11 ar   
     6    2   20 ar   
     7    2   24 ar   
     8    3    4 1    
     9    3    7 1    
    10    3   26 1    
    11    4    6 1    
    12    4   27 1    
    13    4   28 1    
    14    5   10 ar   
    15    5   13 1    
    16    5   24 ar   
    17    6    7 1    
    18    6   29 1    
    19    6   30 1    
    20    7   31 1    
    21    7   32 1    
    22    8   18 1    
    23    8   33 1    
    24    8   34 1    
    25    9   13 am   BACKBONE|DICT|INTERRES
    26    9   18 1    
    27    9   19 2    
    28   10   15 ar   
    29   10   35 1    
    30   11   15 ar   
    31   11   36 1    
    32   12   17 am   BACKBONE|DICT|INTERRES
    33   12   18 1    
    34   12   37 1    
    35   13   17 am   BACKBONE|DICT|INTERRES
    36   14   18 1    
    37   14   38 1    
    38   14   39 1    
    39   16   17 2    
    40   20   21 ar   
    41   20   40 1    
    42   21   22 ar   
    43   21   41 1    
    44   22   23 ar   
    45   22   42 1    
    46   23   24 ar   
    47   23   43 1    
@<TRIPOS>SUBSTRUCTURE
     1 UNK         1 GROUP             0       ****    0 ROOT    
