@<TRIPOS>MOLECULE
7P2G_ligand
34   36    1
SMALL
USER_CHARGES


@<TRIPOS>ATOM
      1 C1         11.4446   -0.9421   23.3004 C.ar      1 UNK         0.0000 
      2 C2         10.9223    0.2919   22.8706 C.ar      1 UNK         0.0000 
      3 C3          9.6231    0.3555   22.3323 C.ar      1 UNK         0.0000 
      4 C4          8.8448   -0.8219   22.2075 C.ar      1 UNK         0.0000 
      5 C5          7.0924   -0.0654   20.6347 C.2       1 UNK         0.0000 
      6 C6          5.6717   -0.3533   20.1296 C.3       1 UNK         0.0000 
      7 C7          5.5948   -0.2987   18.5858 C.3       1 UNK         0.0000 
      8 C8          5.3215    1.1064   18.0283 C.2       1 UNK         0.0000 
      9 C9          4.1799    1.7040   20.0929 C.ar      1 UNK         0.0000 
     10 C10         3.2874    2.5981   20.7134 C.ar      1 UNK         0.0000 
     11 C11         2.8634    2.3605   22.0342 C.ar      1 UNK         0.0000 
     12 C12         3.3392    1.2359   22.7369 C.ar      1 UNK         0.0000 
     13 C13         4.2425    0.3489   22.1207 C.ar      1 UNK         0.0000 
     14 C14         4.6693    0.5785   20.7984 C.ar      1 UNK         0.0000 
     15 C15         9.3588   -2.0440   22.6837 C.ar      1 UNK         0.0000 
     16 C16        10.6566   -2.1036   23.2250 C.ar      1 UNK         0.0000 
     17 I17        13.3926   -1.0640   24.0458 I         1 UNK         0.0000 
     18 N18         7.5429   -0.8334   21.6416 N.am      1 UNK         0.0000 
     19 N19         4.6015    1.9575   18.7701 N.am      1 UNK         0.0000 
     20 O20         7.7537    0.8258   20.1043 O.2       1 UNK         0.0000 
     21 O21         5.7697    1.4301   16.9349 O.2       1 UNK         0.0000 
     22 H22        11.5174    1.1891   22.9470 H         1 UNK         0.0000 
     23 H23         9.2426    1.3161   22.0190 H         1 UNK         0.0000 
     24 H24         5.4184   -1.3725   20.4271 H         1 UNK         0.0000 
     25 H25         4.7841   -0.9373   18.2494 H         1 UNK         0.0000 
     26 H26         6.4956   -0.7167   18.1382 H         1 UNK         0.0000 
     27 H27         2.9269    3.4680   20.1804 H         1 UNK         0.0000 
     28 H28         2.1770    3.0431   22.5123 H         1 UNK         0.0000 
     29 H29         3.0182    1.0567   23.7513 H         1 UNK         0.0000 
     30 H30         4.6171   -0.5009   22.6707 H         1 UNK         0.0000 
     31 H31         8.7713   -2.9491   22.6169 H         1 UNK         0.0000 
     32 H32        11.0546   -3.0430   23.5784 H         1 UNK         0.0000 
     33 H33         6.9413   -1.5898   21.9352 H         1 UNK         0.0000 
     34 H34         4.3923    2.8682   18.3764 H         1 UNK         0.0000 
@<TRIPOS>BOND
     1    1    2 ar   
     2    1   16 ar   
     3    1   17 1    
     4    2    3 ar   
     5    2   22 1    
     6    3    4 ar   
     7    3   23 1    
     8    4   15 ar   
     9    4   18 1    
    10    5    6 1    
    11    5   18 am   BACKBONE|DICT|INTERRES
    12    5   20 2    
    13    6    7 1    
    14    6   14 1    
    15    6   24 1    
    16    7    8 1    
    17    7   25 1    
    18    7   26 1    
    19    8   19 am   BACKBONE|DICT|INTERRES
    20    8   21 2    
    21    9   10 ar   
    22    9   14 ar   
    23    9   19 1    
    24   10   11 ar   
    25   10   27 1    
    26   11   12 ar   
    27   11   28 1    
    28   12   13 ar   
    29   12   29 1    
    30   13   14 ar   
    31   13   30 1    
    32   15   16 ar   
    33   15   31 1    
    34   16   32 1    
    35   18   33 1    
    36   19   34 1    
@<TRIPOS>SUBSTRUCTURE
     1 UNK         1 GROUP             0       ****    0 ROOT    
