@<TRIPOS>MOLECULE
7QBB_ligand1
43   47    1
SMALL
USER_CHARGES


@<TRIPOS>ATOM
      1 C1         10.9933   -0.8291   23.4274 C.3       1 UNK         0.0000 
      2 C2          6.8175   -0.2999   18.8495 C.ar      1 UNK         0.0000 
      3 C3         11.9348   -1.5318   24.3842 C.ar      1 UNK         0.0000 
      4 C4         13.2849   -1.1398   24.4807 C.ar      1 UNK         0.0000 
      5 C5          9.5963   -0.3743   23.8981 C.3       1 UNK         0.0000 
      6 C6         14.1528   -1.8250   25.3518 C.ar      1 UNK         0.0000 
      7 C7         13.6796   -2.9021   26.1224 C.ar      1 UNK         0.0000 
      8 C8         12.3331   -3.2971   26.0264 C.ar      1 UNK         0.0000 
      9 C9         11.4633   -2.6139   25.1590 C.ar      1 UNK         0.0000 
     10 C10         8.4905   -0.0722   21.5482 C.2       1 UNK         0.0000 
     11 C11         6.4885    0.0099   20.1842 C.ar      1 UNK         0.0000 
     12 N12         7.8912   -1.8829   22.8080 N.am      1 UNK         0.0000 
     13 N13         7.2745   -0.5228   21.2237 N.am      1 UNK         0.0000 
     14 C14        10.3400   -1.6854   22.3328 C.3       1 UNK         0.0000 
     15 N15         6.0491    0.0517   17.8048 N.ar      1 UNK         0.0000 
     16 O16         5.8337   -2.1985   21.8671 O.2       1 UNK         0.0000 
     17 C17         6.9027   -1.5919   21.9540 C.2       1 UNK         0.0000 
     18 C18         9.0154   -0.9911   22.6244 C.3       1 UNK         0.0000 
     19 O19         9.0828    0.9071   21.1006 O.2       1 UNK         0.0000 
     20 C20         4.9233    0.7392   18.0647 C.ar      1 UNK         0.0000 
     21 C21         4.5290    1.1598   19.3547 C.ar      1 UNK         0.0000 
     22 C22         3.3581    1.9151   19.5749 C.ar      1 UNK         0.0000 
     23 C23         3.0037    2.3268   20.8701 C.ar      1 UNK         0.0000 
     24 C24         3.8140    1.9673   21.9610 C.ar      1 UNK         0.0000 
     25 C25         4.9728    1.1961   21.7528 C.ar      1 UNK         0.0000 
     26 C26         5.3395    0.7904   20.4485 C.ar      1 UNK         0.0000 
     27 H27        11.5058    0.0171   22.9643 H         1 UNK         0.0000 
     28 H28         7.6987   -0.8806   18.6160 H         1 UNK         0.0000 
     29 H29        13.6637   -0.3193   23.8883 H         1 UNK         0.0000 
     30 H30         9.4893    0.7078   23.9784 H         1 UNK         0.0000 
     31 H31         9.2481   -0.8738   24.8038 H         1 UNK         0.0000 
     32 H32        15.1852   -1.5304   25.4358 H         1 UNK         0.0000 
     33 H33        14.3492   -3.4231   26.7903 H         1 UNK         0.0000 
     34 H34        11.9656   -4.1236   26.6155 H         1 UNK         0.0000 
     35 H35        10.4336   -2.9324   25.0869 H         1 UNK         0.0000 
     36 H36         7.8810   -2.6448   23.4701 H         1 UNK         0.0000 
     37 H37        10.3090   -2.7447   22.5756 H         1 UNK         0.0000 
     38 H38        10.7581   -1.5141   21.3427 H         1 UNK         0.0000 
     39 H39         4.3078    0.9257   17.2035 H         1 UNK         0.0000 
     40 H40         2.7289    2.2167   18.7564 H         1 UNK         0.0000 
     41 H41         2.1137    2.9192   21.0269 H         1 UNK         0.0000 
     42 H42         3.5465    2.2842   22.9584 H         1 UNK         0.0000 
     43 H43         5.5803    0.9326   22.6055 H         1 UNK         0.0000 
@<TRIPOS>BOND
     1    1    3 1    
     2    1    5 1    
     3    1   14 1    
     4    1   27 1    
     5    2   11 ar   
     6    2   15 ar   
     7    2   28 1    
     8    3    4 ar   
     9    3    9 ar   
    10    4    6 ar   
    11    4   29 1    
    12    5   18 1    
    13    5   30 1    
    14    5   31 1    
    15    6    7 ar   
    16    6   32 1    
    17    7    8 ar   
    18    7   33 1    
    19    8    9 ar   
    20    8   34 1    
    21    9   35 1    
    22   10   13 am   BACKBONE|DICT|INTERRES
    23   10   18 1    
    24   10   19 2    
    25   11   13 1    
    26   11   26 ar   
    27   12   17 am   BACKBONE|DICT|INTERRES
    28   12   18 1    
    29   12   36 1    
    30   13   17 am   BACKBONE|DICT|INTERRES
    31   14   18 1    
    32   14   37 1    
    33   14   38 1    
    34   15   20 ar   
    35   16   17 2    
    36   20   21 ar   
    37   20   39 1    
    38   21   22 ar   
    39   21   26 ar   
    40   22   23 ar   
    41   22   40 1    
    42   23   24 ar   
    43   23   41 1    
    44   24   25 ar   
    45   24   42 1    
    46   25   26 ar   
    47   25   43 1    
@<TRIPOS>SUBSTRUCTURE
     1 UNK         1 GROUP             0       ****    0 ROOT    
