@<TRIPOS>MOLECULE
7RLS_ligand1
37   39    1
SMALL
USER_CHARGES


@<TRIPOS>ATOM
      1 C1         11.4327   -1.5381   23.1533 C.ar      1 UNK         0.0000 
      2 C2          4.5359    1.5067   20.1100 C.ar      1 UNK         0.0000 
      3 C3          5.7571   -1.8703   20.8161 C.2       1 UNK         0.0000 
      4 C4          5.4795   -0.6320   20.1160 C.ar      1 UNK         0.0000 
      5 C5          8.7443   -0.8432   22.3762 C.3       1 UNK         0.0000 
      6 C6          7.2433   -0.5232   22.3653 C.3       1 UNK         0.0000 
      7 C7          8.1955   -3.1890   22.9582 C.3       1 UNK         0.0000 
      8 C8          6.6999   -2.8241   22.9009 C.3       1 UNK         0.0000 
      9 C9         10.3120   -2.1907   23.7191 C.ar      1 UNK         0.0000 
     10 C10        10.5166   -3.0316   24.8341 C.ar      1 UNK         0.0000 
     11 C11        11.8021   -3.2282   25.3662 C.ar      1 UNK         0.0000 
     12 C12        12.9136   -2.5717   24.7987 C.ar      1 UNK         0.0000 
     13 O13         5.3089   -2.9542   20.4417 O.2       1 UNK         0.0000 
     14 C14        12.7212   -1.7227   23.6880 C.ar      1 UNK         0.0000 
     15 C15         5.9585    0.8753   18.2546 C.ar      1 UNK         0.0000 
     16 C16         6.1320   -0.4143   18.9090 C.ar      1 UNK         0.0000 
     17 N17         4.6374    0.2767   20.6678 N.2       1 UNK         0.0000 
     18 N18         5.2191    1.7538   18.9672 N.pl3     1 UNK         0.0000 
     19 N19         6.4869   -1.7226   21.9532 N.am      1 UNK         0.0000 
     20 N20         9.0097   -2.0010   23.2204 N.pl3     1 UNK         0.0000 
     21 O21         3.8444    2.4025   20.5851 O.2       1 UNK         0.0000 
     22 O22         6.4384    1.1823   17.1690 O.2       1 UNK         0.0000 
     23 Cl23       14.0514   -0.8944   22.9649 Cl        1 UNK         0.0000 
     24 Cl24       14.4916   -2.8074   25.4640 Cl        1 UNK         0.0000 
     25 Cl25       11.9873   -4.2854   26.7165 Cl        1 UNK         0.0000 
     26 H26        11.3253   -0.8881   22.2982 H         1 UNK         0.0000 
     27 H27         9.2862    0.0168   22.7660 H         1 UNK         0.0000 
     28 H28         9.1045   -1.0332   21.3640 H         1 UNK         0.0000 
     29 H29         7.0943    0.3545   21.7395 H         1 UNK         0.0000 
     30 H30         6.9170   -0.2282   23.3635 H         1 UNK         0.0000 
     31 H31         8.5087   -3.6218   22.0093 H         1 UNK         0.0000 
     32 H32         8.3413   -3.9602   23.7120 H         1 UNK         0.0000 
     33 H33         6.3575   -2.5052   23.8871 H         1 UNK         0.0000 
     34 H34         6.1129   -3.7117   22.6592 H         1 UNK         0.0000 
     35 H35         9.6829   -3.5281   25.3089 H         1 UNK         0.0000 
     36 H36         6.8031   -1.1458   18.4839 H         1 UNK         0.0000 
     37 H37         5.1238    2.6793   18.5722 H         1 UNK         0.0000 
@<TRIPOS>BOND
     1    1    9 ar   
     2    1   14 ar   
     3    1   26 1    
     4    2   17 ar   
     5    2   18 ar   
     6    2   21 2    
     7    3    4 1    
     8    3   13 2    
     9    3   19 am   BACKBONE|DICT|INTERRES
    10    4   16 ar   
    11    4   17 ar   
    12    5    6 1    
    13    5   20 1    
    14    5   27 1    
    15    5   28 1    
    16    6   19 1    
    17    6   29 1    
    18    6   30 1    
    19    7    8 1    
    20    7   20 1    
    21    7   31 1    
    22    7   32 1    
    23    8   19 1    
    24    8   33 1    
    25    8   34 1    
    26    9   10 ar   
    27    9   20 1    
    28   10   11 ar   
    29   10   35 1    
    30   11   12 ar   
    31   11   25 1    
    32   12   14 ar   
    33   12   24 1    
    34   14   23 1    
    35   15   16 ar   
    36   15   18 ar   
    37   15   22 2    
    38   16   36 1    
    39   18   37 1    
@<TRIPOS>SUBSTRUCTURE
     1 UNK         1 GROUP             0       ****    0 ROOT    
