@<TRIPOS>MOLECULE
7RM2_ligand
40   42    1
SMALL
USER_CHARGES


@<TRIPOS>ATOM
      1 C1          4.7260   -0.1619   20.1550 C.ar      1 UNK         0.0000 
      2 C2          9.5907   -1.9871   23.6650 C.ar      1 UNK         0.0000 
      3 C3         10.7277   -1.4613   23.0137 C.ar      1 UNK         0.0000 
      4 C4         12.0159   -1.6331   23.5491 C.ar      1 UNK         0.0000 
      5 C5         12.2056   -2.3660   24.7435 C.ar      1 UNK         0.0000 
      6 C6         11.0724   -2.9248   25.3867 C.ar      1 UNK         0.0000 
      7 C7          9.7853   -2.7300   24.8494 C.ar      1 UNK         0.0000 
      8 C8          3.5322    1.8624   20.0309 C.ar      1 UNK         0.0000 
      9 C9          5.0443   -1.4207   20.8167 C.2       1 UNK         0.0000 
     10 C10         4.8994    1.2257   18.1435 C.ar      1 UNK         0.0000 
     11 C11         5.2403    0.0133   18.8779 C.ar      1 UNK         0.0000 
     12 C12        13.6061   -2.5279   25.3236 C.3       1 UNK         0.0000 
     13 C13         5.9259   -2.4384   22.9049 C.3       1 UNK         0.0000 
     14 C14         7.4019   -2.8862   22.9682 C.3       1 UNK         0.0000 
     15 C15         8.0642   -0.5795   22.3300 C.3       1 UNK         0.0000 
     16 C16         6.5849   -0.1646   22.3698 C.3       1 UNK         0.0000 
     17 N17         3.9018    0.7542   20.7316 N.2       1 UNK         0.0000 
     18 N18         4.0503    2.0522   18.7956 N.pl3     1 UNK         0.0000 
     19 N19         5.7562   -1.3139   21.9700 N.am      1 UNK         0.0000 
     20 N20         8.2886   -1.7439   23.1838 N.pl3     1 UNK         0.0000 
     21 O21         2.7427    2.7024   20.4546 O.2       1 UNK         0.0000 
     22 O22         5.3349    1.4993   17.0311 O.2       1 UNK         0.0000 
     23 O23         4.6382   -2.5056   20.3936 O.2       1 UNK         0.0000 
     24 Cl24       11.2214   -3.8424   26.8425 Cl        1 UNK         0.0000 
     25 Cl25       13.3417   -0.9004   22.7226 Cl        1 UNK         0.0000 
     26 H26        10.6231   -0.8993   22.0996 H         1 UNK         0.0000 
     27 H27         8.9360   -3.1373   25.3785 H         1 UNK         0.0000 
     28 H28         5.8732   -0.7313   18.4186 H         1 UNK         0.0000 
     29 H29        13.6837   -3.3601   26.0219 H         1 UNK         0.0000 
     30 H30        14.3298   -2.7236   24.5330 H         1 UNK         0.0000 
     31 H31        13.9057   -1.6181   25.8451 H         1 UNK         0.0000 
     32 H32         5.5997   -2.1131   23.8935 H         1 UNK         0.0000 
     33 H33         5.2911   -3.2908   22.6577 H         1 UNK         0.0000 
     34 H34         7.6836   -3.3718   22.0345 H         1 UNK         0.0000 
     35 H35         7.5188   -3.6325   23.7548 H         1 UNK         0.0000 
     36 H36         8.6795    0.2536   22.6681 H         1 UNK         0.0000 
     37 H37         8.3630   -0.8148   21.3077 H         1 UNK         0.0000 
     38 H38         6.4592    0.7185   21.7453 H         1 UNK         0.0000 
     39 H39         6.3054    0.1449   23.3774 H         1 UNK         0.0000 
     40 H40         3.7857    2.9052   18.3167 H         1 UNK         0.0000 
@<TRIPOS>BOND
     1    1    9 1    
     2    1   11 ar   
     3    1   17 ar   
     4    2    3 ar   
     5    2    7 ar   
     6    2   20 1    
     7    3    4 ar   
     8    3   26 1    
     9    4    5 ar   
    10    4   25 1    
    11    5    6 ar   
    12    5   12 1    
    13    6    7 ar   
    14    6   24 1    
    15    7   27 1    
    16    8   17 ar   
    17    8   18 ar   
    18    8   21 2    
    19    9   19 am   BACKBONE|DICT|INTERRES
    20    9   23 2    
    21   10   11 ar   
    22   10   18 ar   
    23   10   22 2    
    24   11   28 1    
    25   12   29 1    
    26   12   30 1    
    27   12   31 1    
    28   13   14 1    
    29   13   19 1    
    30   13   32 1    
    31   13   33 1    
    32   14   20 1    
    33   14   34 1    
    34   14   35 1    
    35   15   16 1    
    36   15   20 1    
    37   15   36 1    
    38   15   37 1    
    39   16   19 1    
    40   16   38 1    
    41   16   39 1    
    42   18   40 1    
@<TRIPOS>SUBSTRUCTURE
     1 UNK         1 GROUP             0       ****    0 ROOT    
