@<TRIPOS>MOLECULE
7RMB_ligand1
37   39    1
SMALL
USER_CHARGES


@<TRIPOS>ATOM
      1 C1          5.3885   -0.6803   20.2254 C.ar      1 UNK         0.0000 
      2 C2         10.2261   -2.2899   23.7335 C.ar      1 UNK         0.0000 
      3 C3         11.3375   -1.5731   23.2278 C.ar      1 UNK         0.0000 
      4 C4         12.6201   -1.7415   23.7836 C.ar      1 UNK         0.0000 
      5 C5         12.8107   -2.6466   24.8493 C.ar      1 UNK         0.0000 
      6 C6         11.7191   -3.3844   25.3392 C.ar      1 UNK         0.0000 
      7 C7         10.4372   -3.1970   24.7975 C.ar      1 UNK         0.0000 
      8 C8          4.3655    1.4190   20.1315 C.ar      1 UNK         0.0000 
      9 C9          5.6556   -1.9186   20.9238 C.2       1 UNK         0.0000 
     10 C10         5.8832    0.7920   18.3504 C.ar      1 UNK         0.0000 
     11 C11         6.0668   -0.4764   19.0325 C.ar      1 UNK         0.0000 
     12 C12         7.1338   -0.5843   22.4879 C.3       1 UNK         0.0000 
     13 C13         8.6366   -0.9024   22.4324 C.3       1 UNK         0.0000 
     14 C14         8.0959   -3.2714   22.9584 C.3       1 UNK         0.0000 
     15 C15         6.6038   -2.8953   22.9869 C.3       1 UNK         0.0000 
     16 N16         4.5180    0.2223   20.7449 N.2       1 UNK         0.0000 
     17 N17         5.0975    1.6593   19.0237 N.pl3     1 UNK         0.0000 
     18 N18         6.3672   -1.7747   22.0708 N.am      1 UNK         0.0000 
     19 N19         8.9287   -2.0963   23.2222 N.pl3     1 UNK         0.0000 
     20 O20         3.5896    2.2923   20.5141 O.2       1 UNK         0.0000 
     21 O21         6.3836    1.0860   17.2700 O.2       1 UNK         0.0000 
     22 O22         5.2221   -3.0005   20.5304 O.2       1 UNK         0.0000 
     23 Br23       14.5190   -2.8926   25.6521 Br        1 UNK         0.0000 
     24 Cl24       13.9340   -0.8188   23.1533 Cl        1 UNK         0.0000 
     25 H25        11.2250   -0.8800   22.4075 H         1 UNK         0.0000 
     26 H26        11.8607   -4.0875   26.1468 H         1 UNK         0.0000 
     27 H27         9.6174   -3.7476   25.2324 H         1 UNK         0.0000 
     28 H28         6.7516   -1.2069   18.6291 H         1 UNK         0.0000 
     29 H29         6.9517    0.3125   21.8983 H         1 UNK         0.0000 
     30 H30         6.8457   -0.3212   23.5071 H         1 UNK         0.0000 
     31 H31         9.1870   -0.0473   22.8216 H         1 UNK         0.0000 
     32 H32         8.9587   -1.0585   21.4020 H         1 UNK         0.0000 
     33 H33         8.3592   -3.6683   21.9791 H         1 UNK         0.0000 
     34 H34         8.2684   -4.0747   23.6699 H         1 UNK         0.0000 
     35 H35         6.3158   -2.5953   23.9954 H         1 UNK         0.0000 
     36 H36         5.9967   -3.7709   22.7542 H         1 UNK         0.0000 
     37 H37         4.9750    2.5737   18.6124 H         1 UNK         0.0000 
@<TRIPOS>BOND
     1    1    9 1    
     2    1   11 ar   
     3    1   16 ar   
     4    2    3 ar   
     5    2    7 ar   
     6    2   19 1    
     7    3    4 ar   
     8    3   25 1    
     9    4    5 ar   
    10    4   24 1    
    11    5    6 ar   
    12    5   23 1    
    13    6    7 ar   
    14    6   26 1    
    15    7   27 1    
    16    8   16 ar   
    17    8   17 ar   
    18    8   20 2    
    19    9   18 am   BACKBONE|DICT|INTERRES
    20    9   22 2    
    21   10   11 ar   
    22   10   17 ar   
    23   10   21 2    
    24   11   28 1    
    25   12   13 1    
    26   12   18 1    
    27   12   29 1    
    28   12   30 1    
    29   13   19 1    
    30   13   31 1    
    31   13   32 1    
    32   14   15 1    
    33   14   19 1    
    34   14   33 1    
    35   14   34 1    
    36   15   18 1    
    37   15   35 1    
    38   15   36 1    
    39   17   37 1    
@<TRIPOS>SUBSTRUCTURE
     1 UNK         1 GROUP             0       ****    0 ROOT    
