@<TRIPOS>MOLECULE
7RME_ligand
40   42    1
SMALL
USER_CHARGES


@<TRIPOS>ATOM
      1 C1          5.2075   -0.0209   18.8649 C.ar      1 UNK         0.0000 
      2 C2          5.9254   -2.7683   22.6043 C.3       1 UNK         0.0000 
      3 C3          9.4067   -2.0785   23.9238 C.ar      1 UNK         0.0000 
      4 C4          6.4026   -0.3387   22.4250 C.3       1 UNK         0.0000 
      5 C5          7.9021   -0.6342   22.5965 C.3       1 UNK         0.0000 
      6 C6          6.9894   -2.6811   23.7182 C.3       1 UNK         0.0000 
      7 C7          4.6626   -0.2389   20.1225 C.ar      1 UNK         0.0000 
      8 C8          9.5710   -2.9415   25.0337 C.ar      1 UNK         0.0000 
      9 C9         10.8352   -3.1357   25.6194 C.ar      1 UNK         0.0000 
     10 C10        11.9601   -2.4478   25.1339 C.ar      1 UNK         0.0000 
     11 C11        11.8198   -1.5601   24.0410 C.ar      1 UNK         0.0000 
     12 C12        10.5507   -1.3992   23.4388 C.ar      1 UNK         0.0000 
     13 C13         3.4801    1.7918   20.0403 C.ar      1 UNK         0.0000 
     14 C14         4.9518   -1.5316   20.7320 C.2       1 UNK         0.0000 
     15 C15         4.8868    1.2120   18.1613 C.ar      1 UNK         0.0000 
     16 C16        13.0176   -0.7923   23.5039 C.3       1 UNK         0.0000 
     17 F17        13.6033   -0.1056   24.4834 F         1 UNK         0.0000 
     18 F18        13.8872   -1.6547   22.9835 F         1 UNK         0.0000 
     19 F19        12.6726    0.0759   22.5551 F         1 UNK         0.0000 
     20 N20         3.8266    0.6581   20.7123 N.2       1 UNK         0.0000 
     21 N21         4.0274    2.0223   18.8218 N.pl3     1 UNK         0.0000 
     22 N22         5.6996   -1.5098   21.8690 N.am      1 UNK         0.0000 
     23 N23         8.1471   -1.8886   23.3078 N.pl3     1 UNK         0.0000 
     24 O24         2.6913    2.6259   20.4774 O.2       1 UNK         0.0000 
     25 O25         5.3432    1.5150   17.0627 O.2       1 UNK         0.0000 
     26 O26         4.5127   -2.5870   20.2646 O.2       1 UNK         0.0000 
     27 Cl27       13.4924   -2.7173   25.8924 Cl        1 UNK         0.0000 
     28 H28         5.8462   -0.7556   18.3944 H         1 UNK         0.0000 
     29 H29         4.9847   -3.1331   23.0166 H         1 UNK         0.0000 
     30 H30         6.2716   -3.5250   21.8973 H         1 UNK         0.0000 
     31 H31         6.3123    0.5652   21.8254 H         1 UNK         0.0000 
     32 H32         5.9559   -0.0991   23.3905 H         1 UNK         0.0000 
     33 H33         8.3704    0.1955   23.1255 H         1 UNK         0.0000 
     34 H34         8.3702   -0.6985   21.6123 H         1 UNK         0.0000 
     35 H35         7.2781   -3.7001   23.9742 H         1 UNK         0.0000 
     36 H36         6.5587   -2.2319   24.6130 H         1 UNK         0.0000 
     37 H37         8.7384   -3.4728   25.4678 H         1 UNK         0.0000 
     38 H38        10.9367   -3.8134   26.4548 H         1 UNK         0.0000 
     39 H39        10.4640   -0.7434   22.5877 H         1 UNK         0.0000 
     40 H40         3.7749    2.8886   18.3648 H         1 UNK         0.0000 
@<TRIPOS>BOND
     1    1    7 ar   
     2    1   15 ar   
     3    1   28 1    
     4    2    6 1    
     5    2   22 1    
     6    2   29 1    
     7    2   30 1    
     8    3    8 ar   
     9    3   12 ar   
    10    3   23 1    
    11    4    5 1    
    12    4   22 1    
    13    4   31 1    
    14    4   32 1    
    15    5   23 1    
    16    5   33 1    
    17    5   34 1    
    18    6   23 1    
    19    6   35 1    
    20    6   36 1    
    21    7   14 1    
    22    7   20 ar   
    23    8    9 ar   
    24    8   37 1    
    25    9   10 ar   
    26    9   38 1    
    27   10   11 ar   
    28   10   27 1    
    29   11   12 ar   
    30   11   16 1    
    31   12   39 1    
    32   13   20 ar   
    33   13   21 ar   
    34   13   24 2    
    35   14   22 am   BACKBONE|DICT|INTERRES
    36   14   26 2    
    37   15   21 ar   
    38   15   25 2    
    39   16   17 1    
    40   16   18 1    
    41   16   19 1    
    42   21   40 1    
@<TRIPOS>SUBSTRUCTURE
     1 UNK         1 GROUP             0       ****    0 ROOT    
