@<TRIPOS>MOLECULE
7RMT_ligand
39   41    1
SMALL
USER_CHARGES


@<TRIPOS>ATOM
      1 C1          7.3889   -2.9600   22.9362 C.3       1 UNK         0.0000 
      2 C2          5.9187   -2.4879   22.8789 C.3       1 UNK         0.0000 
      3 C3          4.7421   -0.1802   20.1443 C.ar      1 UNK         0.0000 
      4 C4          9.5893   -2.0874   23.6486 C.ar      1 UNK         0.0000 
      5 C5          9.7632   -2.8451   24.8260 C.ar      1 UNK         0.0000 
      6 C6         11.0443   -3.0330   25.3792 C.ar      1 UNK         0.0000 
      7 C7         12.0198   -1.7277   23.5707 C.ar      1 UNK         0.0000 
      8 C8         10.7375   -1.5558   23.0192 C.ar      1 UNK         0.0000 
      9 C9          3.5800    1.8638   20.0373 C.ar      1 UNK         0.0000 
     10 C10         4.9488    1.2266   18.1496 C.ar      1 UNK         0.0000 
     11 C11         5.0423   -1.4478   20.7999 C.2       1 UNK         0.0000 
     12 C12         5.2659    0.0012   18.8737 C.ar      1 UNK         0.0000 
     13 C13        12.1856   -2.4643   24.7695 C.ar      1 UNK         0.0000 
     14 C14        13.5201   -2.6523   25.3929 C.2       1 UNK         0.0000 
     15 C15         6.6103   -0.2217   22.3505 C.3       1 UNK         0.0000 
     16 C16         8.0843   -0.6570   22.3058 C.3       1 UNK         0.0000 
     17 N17         3.9272    0.7397   20.7271 N.2       1 UNK         0.0000 
     18 N18         4.1091    2.0588   18.8047 N.pl3     1 UNK         0.0000 
     19 N19         5.7641   -1.3567   21.9479 N.am      1 UNK         0.0000 
     20 N20         8.2955   -1.8321   23.1469 N.pl3     1 UNK         0.0000 
     21 O21         2.8089    2.7148   20.4672 O.2       1 UNK         0.0000 
     22 O22         5.3954    1.5064   17.0431 O.2       1 UNK         0.0000 
     23 O23        13.7333   -3.3706   26.3695 O.2       1 UNK         0.0000 
     24 O24         4.6166   -2.5236   20.3738 O.2       1 UNK         0.0000 
     25 Cl25       13.3517   -0.9977   22.7449 Cl        1 UNK         0.0000 
     26 H26         7.6583   -3.4518   22.0024 H         1 UNK         0.0000 
     27 H27         7.4914   -3.7058   23.7224 H         1 UNK         0.0000 
     28 H28         5.6022   -2.1593   23.8688 H         1 UNK         0.0000 
     29 H29         5.2693   -3.3290   22.6338 H         1 UNK         0.0000 
     30 H30         8.9095   -3.2611   25.3407 H         1 UNK         0.0000 
     31 H31        11.1392   -3.6054   26.2905 H         1 UNK         0.0000 
     32 H32        10.6462   -0.9903   22.1040 H         1 UNK         0.0000 
     33 H33         5.8934   -0.7480   18.4108 H         1 UNK         0.0000 
     34 H34        14.3315   -2.1016   24.9219 H         1 UNK         0.0000 
     35 H35         6.4941    0.6668   21.7319 H         1 UNK         0.0000 
     36 H36         6.3374    0.0859   23.3624 H         1 UNK         0.0000 
     37 H37         8.7080    0.1668   22.6501 H         1 UNK         0.0000 
     38 H38         8.3802   -0.8863   21.2805 H         1 UNK         0.0000 
     39 H39         3.8616    2.9205   18.3345 H         1 UNK         0.0000 
@<TRIPOS>BOND
     1    1    2 1    
     2    1   20 1    
     3    1   26 1    
     4    1   27 1    
     5    2   19 1    
     6    2   28 1    
     7    2   29 1    
     8    3   11 1    
     9    3   12 ar   
    10    3   17 ar   
    11    4    5 ar   
    12    4    8 ar   
    13    4   20 1    
    14    5    6 ar   
    15    5   30 1    
    16    6   13 ar   
    17    6   31 1    
    18    7    8 ar   
    19    7   13 ar   
    20    7   25 1    
    21    8   32 1    
    22    9   17 ar   
    23    9   18 ar   
    24    9   21 2    
    25   10   12 ar   
    26   10   18 ar   
    27   10   22 2    
    28   11   19 am   BACKBONE|DICT|INTERRES
    29   11   24 2    
    30   12   33 1    
    31   13   14 1    
    32   14   23 2    
    33   14   34 1    
    34   15   16 1    
    35   15   19 1    
    36   15   35 1    
    37   15   36 1    
    38   16   20 1    
    39   16   37 1    
    40   16   38 1    
    41   18   39 1    
@<TRIPOS>SUBSTRUCTURE
     1 UNK         1 GROUP             0       ****    0 ROOT    
