@<TRIPOS>MOLECULE
7RMZ_ligand
40   42    1
SMALL
USER_CHARGES


@<TRIPOS>ATOM
      1 C1          4.8797    1.1634   18.0262 C.ar      1 UNK         0.0000 
      2 C2          5.1892   -0.0273   18.8074 C.ar      1 UNK         0.0000 
      3 C3         13.4036   -2.3995   25.4390 C.3       1 UNK         0.0000 
      4 C4         12.0195   -2.1942   24.8328 C.ar      1 UNK         0.0000 
      5 C5         10.9296   -2.9728   25.2749 C.ar      1 UNK         0.0000 
      6 C6         11.7981   -1.2170   23.8342 C.ar      1 UNK         0.0000 
      7 C7         10.5130   -1.0455   23.2839 C.ar      1 UNK         0.0000 
      8 C8          3.3598    1.8045   19.7899 C.ar      1 UNK         0.0000 
      9 C9          4.5873   -0.1859   20.0472 C.ar      1 UNK         0.0000 
     10 C10         9.4101   -1.8163   23.7287 C.ar      1 UNK         0.0000 
     11 C11         9.6442   -2.7781   24.7383 C.ar      1 UNK         0.0000 
     12 C12         4.8757   -1.4210   20.7636 C.2       1 UNK         0.0000 
     13 C13         6.3407   -0.1033   22.3500 C.3       1 UNK         0.0000 
     14 C14         7.8450   -0.4313   22.3993 C.3       1 UNK         0.0000 
     15 C15         7.2746   -2.7867   22.9299 C.3       1 UNK         0.0000 
     16 C16         5.7834   -2.4017   22.8543 C.3       1 UNK         0.0000 
     17 F17        14.2876   -2.6472   24.4751 F         1 UNK         0.0000 
     18 F18        13.7633   -1.2984   26.0946 F         1 UNK         0.0000 
     19 F19        13.4329   -3.4185   26.2985 F         1 UNK         0.0000 
     20 N20         3.7032    0.7214   20.5416 N.2       1 UNK         0.0000 
     21 N21         3.9659    1.9817   18.5929 N.pl3     1 UNK         0.0000 
     22 N22         5.5867   -1.2890   21.9141 N.am      1 UNK         0.0000 
     23 N23         8.1062   -1.6148   23.2163 N.pl3     1 UNK         0.0000 
     24 O24         2.5240    2.6342   20.1360 O.2       1 UNK         0.0000 
     25 O25         5.3911    1.4326   16.9458 O.2       1 UNK         0.0000 
     26 O26         4.4493   -2.5124   20.3784 O.2       1 UNK         0.0000 
     27 Cl27       13.0778   -0.1988   23.2758 Cl        1 UNK         0.0000 
     28 H28         5.8682   -0.7677   18.4078 H         1 UNK         0.0000 
     29 H29        11.0629   -3.7191   26.0435 H         1 UNK         0.0000 
     30 H30        10.3974   -0.2977   22.5131 H         1 UNK         0.0000 
     31 H31         8.8374   -3.3686   25.1426 H         1 UNK         0.0000 
     32 H32         6.1996    0.7746   21.7217 H         1 UNK         0.0000 
     33 H33         5.9925    0.1879   23.3430 H         1 UNK         0.0000 
     34 H34         8.3672    0.4270   22.8218 H         1 UNK         0.0000 
     35 H35         8.2334   -0.5926   21.3928 H         1 UNK         0.0000 
     36 H36         7.5998   -3.2180   21.9832 H         1 UNK         0.0000 
     37 H37         7.3899   -3.5708   23.6751 H         1 UNK         0.0000 
     38 H38         5.4341   -2.0886   23.8394 H         1 UNK         0.0000 
     39 H39         5.1887   -3.2808   22.6024 H         1 UNK         0.0000 
     40 H40         3.7187    2.8193   18.0796 H         1 UNK         0.0000 
@<TRIPOS>BOND
     1    1    2 ar   
     2    1   21 ar   
     3    1   25 2    
     4    2    9 ar   
     5    2   28 1    
     6    3    4 1    
     7    3   17 1    
     8    3   18 1    
     9    3   19 1    
    10    4    5 ar   
    11    4    6 ar   
    12    5   11 ar   
    13    5   29 1    
    14    6    7 ar   
    15    6   27 1    
    16    7   10 ar   
    17    7   30 1    
    18    8   20 ar   
    19    8   21 ar   
    20    8   24 2    
    21    9   12 1    
    22    9   20 ar   
    23   10   11 ar   
    24   10   23 1    
    25   11   31 1    
    26   12   22 am   BACKBONE|DICT|INTERRES
    27   12   26 2    
    28   13   14 1    
    29   13   22 1    
    30   13   32 1    
    31   13   33 1    
    32   14   23 1    
    33   14   34 1    
    34   14   35 1    
    35   15   16 1    
    36   15   23 1    
    37   15   36 1    
    38   15   37 1    
    39   16   22 1    
    40   16   38 1    
    41   16   39 1    
    42   21   40 1    
@<TRIPOS>SUBSTRUCTURE
     1 UNK         1 GROUP             0       ****    0 ROOT    
