@<TRIPOS>MOLECULE
7RN4_ligand1
39   41    1
SMALL
USER_CHARGES


@<TRIPOS>ATOM
      1 C1          5.5208   -0.6170   20.1225 C.ar      1 UNK         0.0000 
      2 C2         10.5858   -2.8787   25.0964 C.ar      1 UNK         0.0000 
      3 C3         11.9227   -3.1048   25.4618 C.ar      1 UNK         0.0000 
      4 C4         12.9651   -2.5800   24.6794 C.ar      1 UNK         0.0000 
      5 C5         12.6675   -1.8444   23.5127 C.ar      1 UNK         0.0000 
      6 C6         11.3252   -1.6314   23.1383 C.ar      1 UNK         0.0000 
      7 C7          4.4159    1.5205   20.1037 C.ar      1 UNK         0.0000 
      8 C8          5.7381   -1.8563   20.8340 C.2       1 UNK         0.0000 
      9 C9          6.0342    0.9296   18.3138 C.ar      1 UNK         0.0000 
     10 C10         6.1996   -0.3610   18.9757 C.ar      1 UNK         0.0000 
     11 C11         8.8062   -1.8860   23.6242 C.3       1 UNK         0.0000 
     12 C12         7.0174   -0.4869   22.5397 C.3       1 UNK         0.0000 
     13 C13         8.5298   -0.6995   22.6864 C.3       1 UNK         0.0000 
     14 C14         8.0844   -3.1426   23.1072 C.3       1 UNK         0.0000 
     15 C15         6.5802   -2.8592   22.9288 C.3       1 UNK         0.0000 
     16 C16        10.2745   -2.1360   23.9388 C.ar      1 UNK         0.0000 
     17 N17         4.6241    0.2737   20.6720 N.pl3     1 UNK         0.0000 
     18 N18         5.1569    1.8026   18.9567 N.pl3     1 UNK         0.0000 
     19 N19         6.3847   -1.7205   22.0212 N.am      1 UNK         0.0000 
     20 O20         3.6161    2.3131   20.5916 O.2       1 UNK         0.0000 
     21 O21         6.5938    1.2788   17.2801 O.2       1 UNK         0.0000 
     22 O22         5.3257   -2.9343   20.4082 O.2       1 UNK         0.0000 
     23 Cl23       13.9298   -1.1840   22.5393 Cl        1 UNK         0.0000 
     24 Cl24       14.5925   -2.8543   25.1789 Cl        1 UNK         0.0000 
     25 H25         9.7938   -3.2736   25.7168 H         1 UNK         0.0000 
     26 H26        12.1485   -3.6755   26.3498 H         1 UNK         0.0000 
     27 H27        11.1210   -1.0646   22.2430 H         1 UNK         0.0000 
     28 H28         6.8893   -1.0805   18.5566 H         1 UNK         0.0000 
     29 H29         8.3549   -1.6283   24.5847 H         1 UNK         0.0000 
     30 H30         6.8747    0.4008   21.9277 H         1 UNK         0.0000 
     31 H31         6.5750   -0.2462   23.5070 H         1 UNK         0.0000 
     32 H32         8.9677   -0.8662   21.7014 H         1 UNK         0.0000 
     33 H33         8.9833    0.2025   23.0930 H         1 UNK         0.0000 
     34 H34         8.2162   -3.9701   23.8038 H         1 UNK         0.0000 
     35 H35         8.5222   -3.4623   22.1603 H         1 UNK         0.0000 
     36 H36         6.1299   -2.6185   23.8929 H         1 UNK         0.0000 
     37 H37         6.0785   -3.7670   22.5917 H         1 UNK         0.0000 
     38 H38         4.1126    0.0489   21.5182 H         1 UNK         0.0000 
     39 H39         5.0435    2.7181   18.5371 H         1 UNK         0.0000 
@<TRIPOS>BOND
     1    1    8 1    
     2    1   10 ar   
     3    1   17 ar   
     4    2    3 ar   
     5    2   16 ar   
     6    2   25 1    
     7    3    4 ar   
     8    3   26 1    
     9    4    5 ar   
    10    4   24 1    
    11    5    6 ar   
    12    5   23 1    
    13    6   16 ar   
    14    6   27 1    
    15    7   17 ar   
    16    7   18 ar   
    17    7   20 2    
    18    8   19 am   BACKBONE|DICT|INTERRES
    19    8   22 2    
    20    9   10 ar   
    21    9   18 ar   
    22    9   21 2    
    23   10   28 1    
    24   11   13 1    
    25   11   14 1    
    26   11   16 1    
    27   11   29 1    
    28   12   13 1    
    29   12   19 1    
    30   12   30 1    
    31   12   31 1    
    32   13   32 1    
    33   13   33 1    
    34   14   15 1    
    35   14   34 1    
    36   14   35 1    
    37   15   19 1    
    38   15   36 1    
    39   15   37 1    
    40   17   38 1    
    41   18   39 1    
@<TRIPOS>SUBSTRUCTURE
     1 UNK         1 GROUP             0       ****    0 ROOT    
