@<TRIPOS>MOLECULE
7RNH_ligand1
38   40    1
SMALL
USER_CHARGES


@<TRIPOS>ATOM
      1 C1          5.6015   -0.6177   20.1511 C.ar      1 UNK         0.0000 
      2 C2          5.8283   -1.8430   20.8848 C.2       1 UNK         0.0000 
      3 C3          7.2067   -0.4807   22.5171 C.3       1 UNK         0.0000 
      4 C4          8.7176   -0.7656   22.5571 C.3       1 UNK         0.0000 
      5 C5          8.2015   -3.1498   23.0109 C.3       1 UNK         0.0000 
      6 C6          6.7042   -2.7988   22.9898 C.3       1 UNK         0.0000 
      7 C7         10.3179   -2.1713   23.8122 C.ar      1 UNK         0.0000 
      8 O8          5.4076   -2.9309   20.4920 O.2       1 UNK         0.0000 
      9 C9         11.4202   -1.4155   23.3361 C.ar      1 UNK         0.0000 
     10 C10        12.7161   -1.6281   23.8480 C.ar      1 UNK         0.0000 
     11 C11        12.9313   -2.6145   24.8285 C.ar      1 UNK         0.0000 
     12 C12        11.8518   -3.3834   25.2928 C.ar      1 UNK         0.0000 
     13 C13        10.5545   -3.1417   24.8107 C.ar      1 UNK         0.0000 
     14 C14         4.5037    1.5237   20.1172 C.ar      1 UNK         0.0000 
     15 C15         6.0091    0.8594   18.2600 C.ar      1 UNK         0.0000 
     16 C16         6.2078   -0.4100   18.9535 C.ar      1 UNK         0.0000 
     17 N17         4.7490    0.3021   20.7218 N.pl3     1 UNK         0.0000 
     18 N18         5.1736    1.7586   18.9192 N.pl3     1 UNK         0.0000 
     19 N19         6.4851   -1.6852   22.0622 N.am      1 UNK         0.0000 
     20 N20         9.0060   -1.9676   23.3344 N.pl3     1 UNK         0.0000 
     21 O21         3.7328    2.3374   20.6177 O.2       1 UNK         0.0000 
     22 O22         6.5065    1.1754   17.1849 O.2       1 UNK         0.0000 
     23 Cl23       14.5072   -2.8793   25.4769 Cl        1 UNK         0.0000 
     24 H24         7.0495    0.4091   21.9107 H         1 UNK         0.0000 
     25 H25         6.8536   -0.2188   23.5153 H         1 UNK         0.0000 
     26 H26         9.2197    0.0846   23.0161 H         1 UNK         0.0000 
     27 H27         9.1117   -0.8795   21.5458 H         1 UNK         0.0000 
     28 H28         8.5127   -3.5237   22.0357 H         1 UNK         0.0000 
     29 H29         8.3556   -3.9642   23.7142 H         1 UNK         0.0000 
     30 H30         6.3750   -2.5028   23.9867 H         1 UNK         0.0000 
     31 H31         6.1195   -3.6844   22.7381 H         1 UNK         0.0000 
     32 H32        11.2965   -0.6632   22.5714 H         1 UNK         0.0000 
     33 H33        13.5431   -1.0373   23.4843 H         1 UNK         0.0000 
     34 H34        12.0096   -4.1436   26.0438 H         1 UNK         0.0000 
     35 H35         9.7427   -3.7063   25.2394 H         1 UNK         0.0000 
     36 H36         6.8592   -1.1536   18.5173 H         1 UNK         0.0000 
     37 H37         4.2830    0.1104   21.6010 H         1 UNK         0.0000 
     38 H38         5.0405    2.6589   18.4737 H         1 UNK         0.0000 
@<TRIPOS>BOND
     1    1    2 1    
     2    1   16 ar   
     3    1   17 ar   
     4    2    8 2    
     5    2   19 am   BACKBONE|DICT|INTERRES
     6    3    4 1    
     7    3   19 1    
     8    3   24 1    
     9    3   25 1    
    10    4   20 1    
    11    4   26 1    
    12    4   27 1    
    13    5    6 1    
    14    5   20 1    
    15    5   28 1    
    16    5   29 1    
    17    6   19 1    
    18    6   30 1    
    19    6   31 1    
    20    7    9 ar   
    21    7   13 ar   
    22    7   20 1    
    23    9   10 ar   
    24    9   32 1    
    25   10   11 ar   
    26   10   33 1    
    27   11   12 ar   
    28   11   23 1    
    29   12   13 ar   
    30   12   34 1    
    31   13   35 1    
    32   14   17 ar   
    33   14   18 ar   
    34   14   21 2    
    35   15   16 ar   
    36   15   18 ar   
    37   15   22 2    
    38   16   36 1    
    39   17   37 1    
    40   18   38 1    
@<TRIPOS>SUBSTRUCTURE
     1 UNK         1 GROUP             0       ****    0 ROOT    
