@<TRIPOS>MOLECULE
7RNK_ligand1
41   43    1
SMALL
USER_CHARGES


@<TRIPOS>ATOM
      1 C1          5.8099   -1.8501   20.8694 C.2       1 UNK         0.0000 
      2 C2          8.7848   -0.8437   22.5116 C.3       1 UNK         0.0000 
      3 C3          7.2794   -0.5468   22.4684 C.3       1 UNK         0.0000 
      4 N4          9.0452   -2.0276   23.3242 N.pl3     1 UNK         0.0000 
      5 C5          8.2671   -3.2158   22.9761 C.3       1 UNK         0.0000 
      6 C6          5.4718   -0.5846   20.2507 C.ar      1 UNK         0.0000 
      7 C7         10.3423   -2.2272   23.8331 C.ar      1 UNK         0.0000 
      8 C8         10.5453   -3.1113   24.9144 C.ar      1 UNK         0.0000 
      9 C9         11.8259   -3.2968   25.4609 C.ar      1 UNK         0.0000 
     10 C10        12.9330   -2.5851   24.9515 C.ar      1 UNK         0.0000 
     11 C11        12.7383   -1.7000   23.8669 C.ar      1 UNK         0.0000 
     12 C12        11.4581   -1.5316   23.3113 C.ar      1 UNK         0.0000 
     13 C13         4.4197    1.5005   20.3691 C.ar      1 UNK         0.0000 
     14 C14         5.7900    1.0147   18.4323 C.ar      1 UNK         0.0000 
     15 C15         6.0481   -0.2940   19.0217 C.ar      1 UNK         0.0000 
     16 C16        14.3115   -2.7372   25.5773 C.3       1 UNK         0.0000 
     17 C17         6.7670   -2.8790   22.9120 C.3       1 UNK         0.0000 
     18 N18         4.6260    0.2655   20.8858 N.2       1 UNK         0.0000 
     19 N19         5.0462    1.8274   19.2126 N.pl3     1 UNK         0.0000 
     20 N20         6.5475   -1.7433   22.0069 N.am      1 UNK         0.0000 
     21 O21         3.6795    2.3293   20.8893 O.2       1 UNK         0.0000 
     22 O22         6.1972    1.3855   17.3372 O.2       1 UNK         0.0000 
     23 O23        14.4386   -3.8070   26.4902 O.3       1 UNK         0.0000 
     24 O24         5.3930   -2.9251   20.4396 O.2       1 UNK         0.0000 
     25 Cl25       14.0438   -0.7846   23.2049 Cl        1 UNK         0.0000 
     26 H26         9.3014    0.0174   22.9338 H         1 UNK         0.0000 
     27 H27         9.1720   -1.0006   21.5036 H         1 UNK         0.0000 
     28 H28         7.1368    0.3420   21.8564 H         1 UNK         0.0000 
     29 H29         6.9219   -0.2799   23.4640 H         1 UNK         0.0000 
     30 H30         8.4220   -4.0302   23.6828 H         1 UNK         0.0000 
     31 H31         8.6055   -3.5766   22.0066 H         1 UNK         0.0000 
     32 H32         9.7156   -3.6449   25.3538 H         1 UNK         0.0000 
     33 H33        11.9406   -3.9809   26.2888 H         1 UNK         0.0000 
     34 H34        11.3524   -0.8525   22.4795 H         1 UNK         0.0000 
     35 H35         6.7122   -0.9878   18.5267 H         1 UNK         0.0000 
     36 H36        14.5428   -1.8142   26.1037 H         1 UNK         0.0000 
     37 H37        15.0536   -2.8749   24.7912 H         1 UNK         0.0000 
     38 H38         6.4065   -2.6071   23.9049 H         1 UNK         0.0000 
     39 H39         6.2026   -3.7657   22.6261 H         1 UNK         0.0000 
     40 H40         4.8898    2.7680   18.8715 H         1 UNK         0.0000 
     41 H41        15.3240   -3.8088   26.8209 H         1 UNK         0.0000 
@<TRIPOS>BOND
     1    1    6 1    
     2    1   20 am   BACKBONE|DICT|INTERRES
     3    1   24 2    
     4    2    3 1    
     5    2    4 1    
     6    2   26 1    
     7    2   27 1    
     8    3   20 1    
     9    3   28 1    
    10    3   29 1    
    11    4    5 1    
    12    4    7 1    
    13    5   17 1    
    14    5   30 1    
    15    5   31 1    
    16    6   15 ar   
    17    6   18 ar   
    18    7    8 ar   
    19    7   12 ar   
    20    8    9 ar   
    21    8   32 1    
    22    9   10 ar   
    23    9   33 1    
    24   10   11 ar   
    25   10   16 1    
    26   11   12 ar   
    27   11   25 1    
    28   12   34 1    
    29   13   18 ar   
    30   13   19 ar   
    31   13   21 2    
    32   14   15 ar   
    33   14   19 ar   
    34   14   22 2    
    35   15   35 1    
    36   16   23 1    
    37   16   36 1    
    38   16   37 1    
    39   17   20 1    
    40   17   38 1    
    41   17   39 1    
    42   19   40 1    
    43   23   41 1    
@<TRIPOS>SUBSTRUCTURE
     1 UNK         1 GROUP             0       ****    0 ROOT    
