@<TRIPOS>MOLECULE
7S4B_ligand1
37   39    1
SMALL
USER_CHARGES


@<TRIPOS>ATOM
      1 C1          9.5418   -1.2244   22.9143 C.3       1 UNK         0.0000 
      2 C2         11.9780   -1.5843   22.3128 C.ar      1 UNK         0.0000 
      3 C3         13.3264   -1.1905   22.3173 C.ar      1 UNK         0.0000 
      4 C4         13.7064   -0.0028   22.9673 C.ar      1 UNK         0.0000 
      5 C5          6.9138   -0.3104   20.3432 C.ar      1 UNK         0.0000 
      6 C6          4.9376    1.0234   19.8719 C.ar      1 UNK         0.0000 
      7 C7          5.1435    0.7231   18.5094 C.ar      1 UNK         0.0000 
      8 C8          5.6383    0.7751   22.1919 C.ar      1 UNK         0.0000 
      9 C9          3.6511    2.0818   21.6540 C.ar      1 UNK         0.0000 
     10 C10         3.8392    1.8004   20.2901 C.ar      1 UNK         0.0000 
     11 C11        11.0027   -0.7964   22.9614 C.ar      1 UNK         0.0000 
     12 C12         7.0110   -0.5520   18.9602 C.ar      1 UNK         0.0000 
     13 C13         4.5517    1.5691   22.6045 C.ar      1 UNK         0.0000 
     14 C14        12.7468    0.7792   23.6329 C.ar      1 UNK         0.0000 
     15 C15        11.3987    0.3814   23.6354 C.ar      1 UNK         0.0000 
     16 C16         8.8911   -1.2585   24.3089 C.3       1 UNK         0.0000 
     17 C17         8.7452   -0.3256   21.9575 C.2       1 UNK         0.0000 
     18 C18         5.8487    0.4998   20.8198 C.ar      1 UNK         0.0000 
     19 F19        14.2473   -1.9395   21.6705 F         1 UNK         0.0000 
     20 N20         6.1455   -0.0511   18.0604 N.ar      1 UNK         0.0000 
     21 N21         7.8354   -0.9524   21.1982 N.am      1 UNK         0.0000 
     22 O22         8.9435    0.8884   21.8983 O.2       1 UNK         0.0000 
     23 H23         9.5110   -2.2418   22.5200 H         1 UNK         0.0000 
     24 H24        11.6955   -2.4874   21.7966 H         1 UNK         0.0000 
     25 H25        14.7319    0.3204   22.9383 H         1 UNK         0.0000 
     26 H26         4.4605    1.0697   17.7499 H         1 UNK         0.0000 
     27 H27         6.2986    0.3795   22.9484 H         1 UNK         0.0000 
     28 H28         2.8107    2.6818   21.9718 H         1 UNK         0.0000 
     29 H29         3.1244    2.1781   19.5760 H         1 UNK         0.0000 
     30 H30         7.8014   -1.1683   18.5593 H         1 UNK         0.0000 
     31 H31         4.4043    1.7775   23.6545 H         1 UNK         0.0000 
     32 H32        13.0408    1.6942   24.1231 H         1 UNK         0.0000 
     33 H33        10.6684    1.0002   24.1354 H         1 UNK         0.0000 
     34 H34         7.8681   -1.6310   24.2552 H         1 UNK         0.0000 
     35 H35         9.4427   -1.9186   24.9781 H         1 UNK         0.0000 
     36 H36         8.8538   -0.2720   24.7725 H         1 UNK         0.0000 
     37 H37         7.8263   -1.9624   21.2057 H         1 UNK         0.0000 
@<TRIPOS>BOND
     1    1   11 1    
     2    1   16 1    
     3    1   17 1    
     4    1   23 1    
     5    2    3 ar   
     6    2   11 ar   
     7    2   24 1    
     8    3    4 ar   
     9    3   19 1    
    10    4   14 ar   
    11    4   25 1    
    12    5   12 ar   
    13    5   18 ar   
    14    5   21 1    
    15    6    7 ar   
    16    6   10 ar   
    17    6   18 ar   
    18    7   20 ar   
    19    7   26 1    
    20    8   13 ar   
    21    8   18 ar   
    22    8   27 1    
    23    9   10 ar   
    24    9   13 ar   
    25    9   28 1    
    26   10   29 1    
    27   11   15 ar   
    28   12   20 ar   
    29   12   30 1    
    30   13   31 1    
    31   14   15 ar   
    32   14   32 1    
    33   15   33 1    
    34   16   34 1    
    35   16   35 1    
    36   16   36 1    
    37   17   21 am   BACKBONE|DICT|INTERRES
    38   17   22 2    
    39   21   37 1    
@<TRIPOS>SUBSTRUCTURE
     1 UNK         1 GROUP             0       ****    0 ROOT    
