@<TRIPOS>MOLECULE
7TVX_ligand1
67   71    1
SMALL
USER_CHARGES


@<TRIPOS>ATOM
      1 C1          7.7783   -8.7257   32.8498 C.3       1 UNK         0.0000 
      2 C2          6.6565   -9.7870   32.7948 C.3       1 UNK         0.0000 
      3 N3          7.0802  -11.0140   32.1121 N.3       1 UNK         0.0000 
      4 C4          8.0048  -11.8146   32.9081 C.3       1 UNK         0.0000 
      5 C5          7.5932  -10.7083   30.7745 C.3       1 UNK         0.0000 
      6 C6          8.7131   -9.6452   30.8089 C.3       1 UNK         0.0000 
      7 N7          8.2696   -8.4002   31.4897 N.4       1 UNK         0.0000 
      8 C8          7.3410   -7.5506   30.6978 C.3       1 UNK         0.0000 
      9 C9          8.0890   -6.5514   29.8309 C.ar      1 UNK         0.0000 
     10 C10         8.5947   -6.9410   28.5764 C.ar      1 UNK         0.0000 
     11 C11         9.2619   -6.0204   27.7518 C.ar      1 UNK         0.0000 
     12 C12         8.2488   -5.2151   30.2523 C.ar      1 UNK         0.0000 
     13 C13         8.8994   -4.2825   29.4193 C.ar      1 UNK         0.0000 
     14 C14         9.4128   -4.6792   28.1651 C.ar      1 UNK         0.0000 
     15 C15        10.0228   -3.6682   27.2437 C.2       1 UNK         0.0000 
     16 O16         9.6100   -2.5079   27.2247 O.2       1 UNK         0.0000 
     17 N17        11.0595   -4.1063   26.5086 N.am      1 UNK         0.0000 
     18 C18        11.6640   -3.3612   25.4771 C.ar      1 UNK         0.0000 
     19 C19        10.9077   -2.9504   24.3596 C.ar      1 UNK         0.0000 
     20 C20        13.0334   -3.0540   25.5493 C.ar      1 UNK         0.0000 
     21 C21        13.6266   -2.2909   24.5302 C.ar      1 UNK         0.0000 
     22 C22        12.8661   -1.8450   23.4275 C.ar      1 UNK         0.0000 
     23 C23        13.5319   -0.9701   22.3854 C.3       1 UNK         0.0000 
     24 C24        11.4955   -2.1823   23.3316 C.ar      1 UNK         0.0000 
     25 N25        10.7413   -1.7846   22.2148 N.pl3     1 UNK         0.0000 
     26 C26         9.4444   -1.2763   22.2059 C.2       1 UNK         0.0000 
     27 N27         8.7749   -0.9926   21.0871 N.2       1 UNK         0.0000 
     28 S28         8.5649   -0.8316   23.6643 S.3       1 UNK         0.0000 
     29 C29         7.2526   -0.2893   22.6625 C.2       1 UNK         0.0000 
     30 C30         7.5182   -0.4144   21.3185 C.2       1 UNK         0.0000 
     31 C31         6.6628    0.0035   20.2019 C.ar      1 UNK         0.0000 
     32 C32         5.4030    0.5858   20.4560 C.ar      1 UNK         0.0000 
     33 C33         4.6043    1.0040   19.3810 C.ar      1 UNK         0.0000 
     34 C34         5.0991    0.8459   18.0743 C.ar      1 UNK         0.0000 
     35 N35         6.2945    0.2835   17.8077 N.ar      1 UNK         0.0000 
     36 C36         7.0517   -0.1299   18.8480 C.ar      1 UNK         0.0000 
     37 H37         8.6135   -9.0827   33.4536 H         1 UNK         0.0000 
     38 H38         7.4210   -7.8243   33.3476 H         1 UNK         0.0000 
     39 H39         5.7951   -9.3713   32.2705 H         1 UNK         0.0000 
     40 H40         6.3105  -10.0275   33.8004 H         1 UNK         0.0000 
     41 H41         8.2385  -12.7460   32.3908 H         1 UNK         0.0000 
     42 H42         8.9422  -11.2969   33.1102 H         1 UNK         0.0000 
     43 H43         7.5514  -12.0754   33.8642 H         1 UNK         0.0000 
     44 H44         6.7683  -10.3615   30.1532 H         1 UNK         0.0000 
     45 H45         7.9583  -11.6226   30.3054 H         1 UNK         0.0000 
     46 H46         9.0591   -9.4237   29.8035 H         1 UNK         0.0000 
     47 H47         9.5786  -10.0499   31.3287 H         1 UNK         0.0000 
     48 H48         9.0925   -7.8290   31.6137 H         1 UNK         0.0000 
     49 H49         6.6897   -6.9855   31.3658 H         1 UNK         0.0000 
     50 H50         6.6770   -8.1529   30.0779 H         1 UNK         0.0000 
     51 H51         8.4688   -7.9488   28.2270 H         1 UNK         0.0000 
     52 H52         9.6256   -6.3506   26.7889 H         1 UNK         0.0000 
     53 H53         7.8540   -4.8880   31.2020 H         1 UNK         0.0000 
     54 H54         8.9879   -3.2549   29.7442 H         1 UNK         0.0000 
     55 H55        11.4337   -5.0231   26.7047 H         1 UNK         0.0000 
     56 H56         9.8688   -3.2359   24.2956 H         1 UNK         0.0000 
     57 H57        13.6255   -3.3778   26.3927 H         1 UNK         0.0000 
     58 H58        14.6698   -2.0333   24.6091 H         1 UNK         0.0000 
     59 H59        12.9361   -0.0748   22.2173 H         1 UNK         0.0000 
     60 H60        14.5120   -0.6364   22.7205 H         1 UNK         0.0000 
     61 H61        13.6486   -1.5108   21.4454 H         1 UNK         0.0000 
     62 H62        11.2390   -1.7052   21.3393 H         1 UNK         0.0000 
     63 H63         6.3722    0.1195   23.1362 H         1 UNK         0.0000 
     64 H64         5.0392    0.7234   21.4623 H         1 UNK         0.0000 
     65 H65         3.6395    1.4406   19.5778 H         1 UNK         0.0000 
     66 H66         4.5170    1.1626   17.2211 H         1 UNK         0.0000 
     67 H67         7.9951   -0.5791   18.5781 H         1 UNK         0.0000 
@<TRIPOS>BOND
     1    1    2 1    
     2    1    7 1    
     3    1   37 1    
     4    1   38 1    
     5    2    3 1    
     6    2   39 1    
     7    2   40 1    
     8    3    4 1    
     9    3    5 1    
    10    4   41 1    
    11    4   42 1    
    12    4   43 1    
    13    5    6 1    
    14    5   44 1    
    15    5   45 1    
    16    6    7 1    
    17    6   46 1    
    18    6   47 1    
    19    7    8 1    
    20    7   48 1    
    21    8    9 1    
    22    8   49 1    
    23    8   50 1    
    24    9   10 ar   
    25    9   12 ar   
    26   10   11 ar   
    27   10   51 1    
    28   11   14 ar   
    29   11   52 1    
    30   12   13 ar   
    31   12   53 1    
    32   13   14 ar   
    33   13   54 1    
    34   14   15 1    
    35   15   16 2    
    36   15   17 am   BACKBONE|DICT|INTERRES
    37   17   18 1    
    38   17   55 1    
    39   18   19 ar   
    40   18   20 ar   
    41   19   24 ar   
    42   19   56 1    
    43   20   21 ar   
    44   20   57 1    
    45   21   22 ar   
    46   21   58 1    
    47   22   23 1    
    48   22   24 ar   
    49   23   59 1    
    50   23   60 1    
    51   23   61 1    
    52   24   25 1    
    53   25   26 1    
    54   25   62 1    
    55   26   27 2    
    56   26   28 1    
    57   27   30 1    
    58   28   29 1    
    59   29   30 2    
    60   29   63 1    
    61   30   31 1    
    62   31   32 ar   
    63   31   36 ar   
    64   32   33 ar   
    65   32   64 1    
    66   33   34 ar   
    67   33   65 1    
    68   34   35 ar   
    69   34   66 1    
    70   35   36 ar   
    71   36   67 1    
@<TRIPOS>SUBSTRUCTURE
     1 UNK         1 GROUP             0       ****    0 ROOT    
