@<TRIPOS>MOLECULE
7VIC_ligand1
56   60    1
SMALL
USER_CHARGES


@<TRIPOS>ATOM
      1 O1          6.1105   -1.0500   20.8156 O.2       1 UNK         0.0000 
      2 C2          7.2456   -1.0162   21.2861 C.2       1 UNK         0.0000 
      3 C3          7.6929   -0.2742   22.5510 C.3       1 UNK         0.0000 
      4 C4          6.8673    0.9842   23.0209 C.3       1 UNK         0.0000 
      5 O5          6.7931    1.9694   22.0086 O.3       1 UNK         0.0000 
      6 O6          7.5482    1.5032   24.1357 O.3       1 UNK         0.0000 
      7 C7          7.6661    0.6206   25.2662 C.3       1 UNK         0.0000 
      8 C8          5.4279    0.6863   23.5234 C.3       1 UNK         0.0000 
      9 O9          4.5076    0.4050   22.4847 O.3       1 UNK         0.0000 
     10 C10         5.4737   -0.4576   24.5784 C.3       1 UNK         0.0000 
     11 C11         4.4146   -0.3030   25.7378 C.3       1 UNK         0.0000 
     12 C12         2.9851   -0.3792   25.1609 C.3       1 UNK         0.0000 
     13 C13         4.4735    1.0246   26.5393 C.3       1 UNK         0.0000 
     14 C14         4.5786   -1.4866   26.7098 C.3       1 UNK         0.0000 
     15 C15         5.9941   -1.5734   27.2806 C.3       1 UNK         0.0000 
     16 C16         8.4275   -1.7626   20.6994 C.3       1 UNK         0.0000 
     17 C17         8.1548   -3.2774   20.6882 C.3       1 UNK         0.0000 
     18 C18         9.6217   -1.2735   21.5664 C.3       1 UNK         0.0000 
     19 C19         9.1568    0.0733   22.1496 C.3       1 UNK         0.0000 
     20 O20         9.2879    1.0855   21.1649 O.3       1 UNK         0.0000 
     21 C21         9.9791   -2.2029   22.7436 C.3       1 UNK         0.0000 
     22 C22         9.0893   -1.9770   23.9839 C.3       1 UNK         0.0000 
     23 C23         7.6884   -1.3274   23.7284 C.3       1 UNK         0.0000 
     24 C24         6.9688   -0.7424   24.9933 C.3       1 UNK         0.0000 
     25 C25         7.0295   -1.7757   26.1715 C.3       1 UNK         0.0000 
     26 O26         8.2907   -1.8300   26.8116 O.3       1 UNK         0.0000 
     27 H27         6.1281    2.5964   22.2544 H         1 UNK         0.0000 
     28 H28         7.2793    1.1201   26.1477 H         1 UNK         0.0000 
     29 H29         8.7279    0.4899   25.4709 H         1 UNK         0.0000 
     30 H30         5.0796    1.6132   23.9735 H         1 UNK         0.0000 
     31 H31         4.8983   -0.2327   21.9012 H         1 UNK         0.0000 
     32 H32         5.1579   -1.3654   24.0610 H         1 UNK         0.0000 
     33 H33         2.2326   -0.3541   25.9499 H         1 UNK         0.0000 
     34 H34         2.7680    0.4480   24.4854 H         1 UNK         0.0000 
     35 H35         2.8327   -1.3013   24.6104 H         1 UNK         0.0000 
     36 H36         3.7030    1.0337   27.3095 H         1 UNK         0.0000 
     37 H37         5.4089    1.1849   27.0632 H         1 UNK         0.0000 
     38 H38         4.2871    1.9012   25.9235 H         1 UNK         0.0000 
     39 H39         4.3426   -2.4243   26.2012 H         1 UNK         0.0000 
     40 H40         3.8638   -1.4052   27.5298 H         1 UNK         0.0000 
     41 H41         6.0445   -2.4104   27.9781 H         1 UNK         0.0000 
     42 H42         6.2300   -0.6891   27.8716 H         1 UNK         0.0000 
     43 H43         8.5626   -1.4016   19.6807 H         1 UNK         0.0000 
     44 H44         9.0351   -3.8340   20.3736 H         1 UNK         0.0000 
     45 H45         7.8540   -3.6575   21.6652 H         1 UNK         0.0000 
     46 H46         7.3446   -3.5118   19.9990 H         1 UNK         0.0000 
     47 H47        10.5096   -1.1437   20.9565 H         1 UNK         0.0000 
     48 H48         9.7603    0.3808   23.0048 H         1 UNK         0.0000 
     49 H49         8.7369    1.8125   21.4227 H         1 UNK         0.0000 
     50 H50        11.0108   -2.0061   23.0294 H         1 UNK         0.0000 
     51 H51         9.9887   -3.2526   22.4561 H         1 UNK         0.0000 
     52 H52         9.6590   -1.3376   24.6555 H         1 UNK         0.0000 
     53 H53         8.9836   -2.9249   24.5117 H         1 UNK         0.0000 
     54 H54         7.0795   -2.1826   23.4283 H         1 UNK         0.0000 
     55 H55         6.8477   -2.7670   25.7539 H         1 UNK         0.0000 
     56 H56         8.4035   -1.0589   27.3515 H         1 UNK         0.0000 
@<TRIPOS>BOND
     1    1    2 2    
     2    2    3 1    
     3    2   16 1    
     4    3    4 1    
     5    3   19 1    
     6    3   23 1    
     7    4    5 1    
     8    4    6 1    
     9    4    8 1    
    10    5   27 1    
    11    6    7 1    
    12    7   24 1    
    13    7   28 1    
    14    7   29 1    
    15    8    9 1    
    16    8   10 1    
    17    8   30 1    
    18    9   31 1    
    19   10   11 1    
    20   10   24 1    
    21   10   32 1    
    22   11   12 1    
    23   11   13 1    
    24   11   14 1    
    25   12   33 1    
    26   12   34 1    
    27   12   35 1    
    28   13   36 1    
    29   13   37 1    
    30   13   38 1    
    31   14   15 1    
    32   14   39 1    
    33   14   40 1    
    34   15   25 1    
    35   15   41 1    
    36   15   42 1    
    37   16   17 1    
    38   16   18 1    
    39   16   43 1    
    40   17   44 1    
    41   17   45 1    
    42   17   46 1    
    43   18   19 1    
    44   18   21 1    
    45   18   47 1    
    46   19   20 1    
    47   19   48 1    
    48   20   49 1    
    49   21   22 1    
    50   21   50 1    
    51   21   51 1    
    52   22   23 1    
    53   22   52 1    
    54   22   53 1    
    55   23   24 1    
    56   23   54 1    
    57   24   25 1    
    58   25   26 1    
    59   25   55 1    
    60   26   56 1    
@<TRIPOS>SUBSTRUCTURE
     1 UNK         1 GROUP             0       ****    0 ROOT    
