@<TRIPOS>MOLECULE
7VLP_ligand1
72   74    1
SMALL
USER_CHARGES


@<TRIPOS>ATOM
      1 C1          5.5497    1.1377   18.1941 C.2       1 UNK         0.0000 
      2 C2          7.2248   -3.3038   19.9806 C.3       1 UNK         0.0000 
      3 C3          8.8465   -1.2352   21.9107 C.2       1 UNK         0.0000 
      4 C4          9.6396    1.7482   22.3773 C.2       1 UNK         0.0000 
      5 C5         11.4711    4.4988   23.0475 C.2       1 UNK         0.0000 
      6 C6          5.1638    0.6714   20.4987 C.3       1 UNK         0.0000 
      7 C7          4.2666    1.8121   20.0043 C.3       1 UNK         0.0000 
      8 C8         10.8548    0.4846   24.1557 C.3       1 UNK         0.0000 
      9 C9          6.1986    0.4396   19.3815 C.3       1 UNK         0.0000 
     10 C10        10.2561   -0.6508   22.0840 C.3       1 UNK         0.0000 
     11 C11        11.4547   -0.9113   24.1943 C.3       1 UNK         0.0000 
     12 C12        11.1234   -1.6064   22.9207 C.3       1 UNK         0.0000 
     13 C13        12.5764   -1.3361   23.2678 C.3       1 UNK         0.0000 
     14 C14        13.4814   -2.4621   23.7327 C.3       1 UNK         0.0000 
     15 C15        13.3708   -0.3326   22.4441 C.3       1 UNK         0.0000 
     16 C16         8.0003    4.5320   24.6161 C.3       1 UNK         0.0000 
     17 C17         7.2622    2.1900   24.2293 C.3       1 UNK         0.0000 
     18 C18         7.2217    3.8276   22.3390 C.3       1 UNK         0.0000 
     19 C19         6.5008   -1.0407   19.0920 C.3       1 UNK         0.0000 
     20 C20         7.0689   -1.8166   20.2945 C.3       1 UNK         0.0000 
     21 C21         9.5088    2.9811   23.3039 C.3       1 UNK         0.0000 
     22 C22        12.1381    5.5804   22.1929 C.3       1 UNK         0.0000 
     23 C23         8.0166    3.3797   23.5892 C.3       1 UNK         0.0000 
     24 N24         5.9219   -3.9623   19.8223 N.4       1 UNK         0.0000 
     25 N25         4.4985    1.8541   18.5779 N.am      1 UNK         0.0000 
     26 N26        10.1815    0.6031   22.8590 N.am      1 UNK         0.0000 
     27 N27         8.3747   -1.2868   20.6588 N.am      1 UNK         0.0000 
     28 N28        10.2473    4.0829   22.6757 N.am      1 UNK         0.0000 
     29 O29         5.9678    1.0479   17.0438 O.2       1 UNK         0.0000 
     30 O30         8.2028   -1.6200   22.8889 O.2       1 UNK         0.0000 
     31 O31         9.2482    1.8339   21.2118 O.2       1 UNK         0.0000 
     32 O32        12.0619    4.0446   24.0254 O.2       1 UNK         0.0000 
     33 F33        11.4653    6.7205   22.3223 F         1 UNK         0.0000 
     34 F34        13.3961    5.7614   22.5934 F         1 UNK         0.0000 
     35 F35        12.1415    5.2026   20.9163 F         1 UNK         0.0000 
     36 H36         7.7715   -3.8171   20.7719 H         1 UNK         0.0000 
     37 H37         7.7953   -3.4085   19.0599 H         1 UNK         0.0000 
     38 H38         4.5554   -0.2216   20.6470 H         1 UNK         0.0000 
     39 H39         5.6360    0.9093   21.4515 H         1 UNK         0.0000 
     40 H40         4.5652    2.7662   20.4397 H         1 UNK         0.0000 
     41 H41         3.2135    1.6375   20.2328 H         1 UNK         0.0000 
     42 H42        11.6333    1.2388   24.2717 H         1 UNK         0.0000 
     43 H43        10.1285    0.5989   24.9609 H         1 UNK         0.0000 
     44 H44         7.1174    0.9813   19.6099 H         1 UNK         0.0000 
     45 H45        10.7215   -0.4766   21.1159 H         1 UNK         0.0000 
     46 H46        11.3329   -1.4585   25.1254 H         1 UNK         0.0000 
     47 H47        10.7976   -2.6435   22.9793 H         1 UNK         0.0000 
     48 H48        14.0433   -2.8742   22.8958 H         1 UNK         0.0000 
     49 H49        14.1904   -2.0919   24.4739 H         1 UNK         0.0000 
     50 H50        12.8990   -3.2642   24.1857 H         1 UNK         0.0000 
     51 H51        13.7596   -0.8088   21.5439 H         1 UNK         0.0000 
     52 H52        12.7684    0.5197   22.1378 H         1 UNK         0.0000 
     53 H53        14.2041    0.0523   23.0225 H         1 UNK         0.0000 
     54 H54         8.4879    5.4277   24.2317 H         1 UNK         0.0000 
     55 H55         6.9823    4.8116   24.8890 H         1 UNK         0.0000 
     56 H56         8.5164    4.2525   25.5357 H         1 UNK         0.0000 
     57 H57         7.1530    1.3520   23.5410 H         1 UNK         0.0000 
     58 H58         7.7785    1.8214   25.1162 H         1 UNK         0.0000 
     59 H59         6.2550    2.4778   24.5349 H         1 UNK         0.0000 
     60 H60         7.0876    3.0245   21.6170 H         1 UNK         0.0000 
     61 H61         6.2216    4.1622   22.6128 H         1 UNK         0.0000 
     62 H62         7.7001    4.6607   21.8294 H         1 UNK         0.0000 
     63 H63         7.1980   -1.1171   18.2548 H         1 UNK         0.0000 
     64 H64         5.5826   -1.5210   18.7598 H         1 UNK         0.0000 
     65 H65         6.3833   -1.7071   21.1352 H         1 UNK         0.0000 
     66 H66         9.9465    2.7822   24.2801 H         1 UNK         0.0000 
     67 H67         6.0571   -4.9476   19.6529 H         1 UNK         0.0000 
     68 H68         5.3995   -3.8380   20.6823 H         1 UNK         0.0000 
     69 H69         5.4228   -3.5400   19.0517 H         1 UNK         0.0000 
     70 H70         3.9668    2.4493   17.9545 H         1 UNK         0.0000 
     71 H71         8.9745   -0.9675   19.9097 H         1 UNK         0.0000 
     72 H72         9.8374    4.4977   21.8497 H         1 UNK         0.0000 
@<TRIPOS>BOND
     1    1    9 1    
     2    1   25 am   BACKBONE|DICT|INTERRES
     3    1   29 2    
     4    2   20 1    
     5    2   24 1    
     6    2   36 1    
     7    2   37 1    
     8    3   10 1    
     9    3   27 am   BACKBONE|DICT|INTERRES
    10    3   30 2    
    11    4   21 1    
    12    4   26 am   BACKBONE|DICT|INTERRES
    13    4   31 2    
    14    5   22 1    
    15    5   28 am   BACKBONE|DICT|INTERRES
    16    5   32 2    
    17    6    7 1    
    18    6    9 1    
    19    6   38 1    
    20    6   39 1    
    21    7   25 1    
    22    7   40 1    
    23    7   41 1    
    24    8   11 1    
    25    8   26 1    
    26    8   42 1    
    27    8   43 1    
    28    9   19 1    
    29    9   44 1    
    30   10   12 1    
    31   10   26 1    
    32   10   45 1    
    33   11   12 1    
    34   11   13 1    
    35   11   46 1    
    36   12   13 1    
    37   12   47 1    
    38   13   14 1    
    39   13   15 1    
    40   14   48 1    
    41   14   49 1    
    42   14   50 1    
    43   15   51 1    
    44   15   52 1    
    45   15   53 1    
    46   16   23 1    
    47   16   54 1    
    48   16   55 1    
    49   16   56 1    
    50   17   23 1    
    51   17   57 1    
    52   17   58 1    
    53   17   59 1    
    54   18   23 1    
    55   18   60 1    
    56   18   61 1    
    57   18   62 1    
    58   19   20 1    
    59   19   63 1    
    60   19   64 1    
    61   20   27 1    
    62   20   65 1    
    63   21   23 1    
    64   21   28 1    
    65   21   66 1    
    66   22   33 1    
    67   22   34 1    
    68   22   35 1    
    69   24   67 1    
    70   24   68 1    
    71   24   69 1    
    72   25   70 1    
    73   27   71 1    
    74   28   72 1    
@<TRIPOS>SUBSTRUCTURE
     1 UNK         1 GROUP             0       ****    0 ROOT    
