@<TRIPOS>MOLECULE
7VLQ_ligand1
72   74    1
SMALL
USER_CHARGES


@<TRIPOS>ATOM
      1 C1          5.7813    1.2735   18.2243 C.2       1 UNK         0.0000 
      2 C2          7.4498   -3.2021   19.9521 C.3       1 UNK         0.0000 
      3 C3          9.2051   -1.2114   21.8458 C.2       1 UNK         0.0000 
      4 C4         10.0786    1.7632   22.2430 C.2       1 UNK         0.0000 
      5 C5         12.0645    4.3140   22.5911 C.2       1 UNK         0.0000 
      6 C6          5.5192    0.7833   20.5339 C.3       1 UNK         0.0000 
      7 C7          4.6297    1.9608   20.1169 C.3       1 UNK         0.0000 
      8 C8         11.2695    0.5090   24.0501 C.3       1 UNK         0.0000 
      9 C9          6.5023    0.5699   19.3694 C.3       1 UNK         0.0000 
     10 C10        10.6268   -0.6547   22.0009 C.3       1 UNK         0.0000 
     11 C11        11.8445   -0.8972   24.1078 C.3       1 UNK         0.0000 
     12 C12        11.4840   -1.6091   22.8493 C.3       1 UNK         0.0000 
     13 C13        12.9445   -1.3581   23.1691 C.3       1 UNK         0.0000 
     14 C14        13.8365   -2.5025   23.6135 C.3       1 UNK         0.0000 
     15 C15        13.7445   -0.3696   22.3345 C.3       1 UNK         0.0000 
     16 C16         8.5417    4.6703   24.3917 C.3       1 UNK         0.0000 
     17 C17         7.7526    2.3271   24.1289 C.3       1 UNK         0.0000 
     18 C18         7.7146    3.8772   22.1622 C.3       1 UNK         0.0000 
     19 C19         6.8205   -0.9070   19.0625 C.3       1 UNK         0.0000 
     20 C20         7.3712   -1.7063   20.2614 C.3       1 UNK         0.0000 
     21 C21         9.9999    3.0284   23.1352 C.3       1 UNK         0.0000 
     22 C22        12.6819    5.4416   21.7588 C.3       1 UNK         0.0000 
     23 C23         8.5192    3.4689   23.4205 C.3       1 UNK         0.0000 
     24 N24         6.1137   -3.8007   19.8302 N.4       1 UNK         0.0000 
     25 N25         4.7788    2.0191   18.6795 N.am      1 UNK         0.0000 
     26 N26        10.5898    0.6161   22.7524 N.am      1 UNK         0.0000 
     27 N27         8.7035   -1.2292   20.6020 N.am      1 UNK         0.0000 
     28 N28        10.7426    4.1014   22.4646 N.am      1 UNK         0.0000 
     29 O29         6.1018    1.1684   17.0446 O.2       1 UNK         0.0000 
     30 O30         8.5755   -1.5976   22.8309 O.2       1 UNK         0.0000 
     31 O31         9.6804    1.8265   21.0784 O.2       1 UNK         0.0000 
     32 O32        12.7799    3.6374   23.3292 O.2       1 UNK         0.0000 
     33 F33        13.9085    5.7110   22.2027 F         1 UNK         0.0000 
     34 F34        12.7543    5.0564   20.4858 F         1 UNK         0.0000 
     35 F35        11.9298    6.5372   21.8550 F         1 UNK         0.0000 
     36 H36         7.9908   -3.7365   20.7344 H         1 UNK         0.0000 
     37 H37         7.9930   -3.3407   19.0204 H         1 UNK         0.0000 
     38 H38         4.8962   -0.1010   20.6661 H         1 UNK         0.0000 
     39 H39         6.0310    0.9714   21.4777 H         1 UNK         0.0000 
     40 H40         4.9813    2.8977   20.5523 H         1 UNK         0.0000 
     41 H41         3.5887    1.8120   20.4046 H         1 UNK         0.0000 
     42 H42        12.0662    1.2438   24.1535 H         1 UNK         0.0000 
     43 H43        10.5538    0.6544   24.8585 H         1 UNK         0.0000 
     44 H44         7.4232    1.1219   19.5606 H         1 UNK         0.0000 
     45 H45        11.0866   -0.5144   21.0239 H         1 UNK         0.0000 
     46 H46        11.7381   -1.4208   25.0542 H         1 UNK         0.0000 
     47 H47        11.1390   -2.6377   22.9316 H         1 UNK         0.0000 
     48 H48        14.3388   -2.9518   22.7573 H         1 UNK         0.0000 
     49 H49        14.5954   -2.1431   24.3095 H         1 UNK         0.0000 
     50 H50        13.2536   -3.2759   24.1121 H         1 UNK         0.0000 
     51 H51        14.1634   -0.8650   21.4608 H         1 UNK         0.0000 
     52 H52        13.1351    0.4609   21.9863 H         1 UNK         0.0000 
     53 H53        14.5522    0.0525   22.9254 H         1 UNK         0.0000 
     54 H54         9.0256    5.5410   23.9521 H         1 UNK         0.0000 
     55 H55         7.5333    4.9745   24.6748 H         1 UNK         0.0000 
     56 H56         9.0771    4.4283   25.3111 H         1 UNK         0.0000 
     57 H57         7.6221    1.4565   23.4844 H         1 UNK         0.0000 
     58 H58         8.2753    1.9940   25.0266 H         1 UNK         0.0000 
     59 H59         6.7547    2.6453   24.4318 H         1 UNK         0.0000 
     60 H60         7.5396    3.0426   21.4849 H         1 UNK         0.0000 
     61 H61         6.7298    4.2584   22.4352 H         1 UNK         0.0000 
     62 H62         8.2101    4.6656   21.5995 H         1 UNK         0.0000 
     63 H63         7.5430   -0.9574   18.2478 H         1 UNK         0.0000 
     64 H64         5.9183   -1.3865   18.6900 H         1 UNK         0.0000 
     65 H65         6.7057   -1.5699   21.1156 H         1 UNK         0.0000 
     66 H66        10.4606    2.8606   24.1071 H         1 UNK         0.0000 
     67 H67         6.2050   -4.7902   19.6535 H         1 UNK         0.0000 
     68 H68         5.6213   -3.6563   20.7000 H         1 UNK         0.0000 
     69 H69         5.6165   -3.3544   19.0724 H         1 UNK         0.0000 
     70 H70         4.2155    2.6190   18.0897 H         1 UNK         0.0000 
     71 H71         9.2876   -0.8974   19.8480 H         1 UNK         0.0000 
     72 H72        10.2296    4.6720   21.8059 H         1 UNK         0.0000 
@<TRIPOS>BOND
     1    1    9 1    
     2    1   25 am   BACKBONE|DICT|INTERRES
     3    1   29 2    
     4    2   20 1    
     5    2   24 1    
     6    2   36 1    
     7    2   37 1    
     8    3   10 1    
     9    3   27 am   BACKBONE|DICT|INTERRES
    10    3   30 2    
    11    4   21 1    
    12    4   26 am   BACKBONE|DICT|INTERRES
    13    4   31 2    
    14    5   22 1    
    15    5   28 am   BACKBONE|DICT|INTERRES
    16    5   32 2    
    17    6    7 1    
    18    6    9 1    
    19    6   38 1    
    20    6   39 1    
    21    7   25 1    
    22    7   40 1    
    23    7   41 1    
    24    8   11 1    
    25    8   26 1    
    26    8   42 1    
    27    8   43 1    
    28    9   19 1    
    29    9   44 1    
    30   10   12 1    
    31   10   26 1    
    32   10   45 1    
    33   11   12 1    
    34   11   13 1    
    35   11   46 1    
    36   12   13 1    
    37   12   47 1    
    38   13   14 1    
    39   13   15 1    
    40   14   48 1    
    41   14   49 1    
    42   14   50 1    
    43   15   51 1    
    44   15   52 1    
    45   15   53 1    
    46   16   23 1    
    47   16   54 1    
    48   16   55 1    
    49   16   56 1    
    50   17   23 1    
    51   17   57 1    
    52   17   58 1    
    53   17   59 1    
    54   18   23 1    
    55   18   60 1    
    56   18   61 1    
    57   18   62 1    
    58   19   20 1    
    59   19   63 1    
    60   19   64 1    
    61   20   27 1    
    62   20   65 1    
    63   21   23 1    
    64   21   28 1    
    65   21   66 1    
    66   22   33 1    
    67   22   34 1    
    68   22   35 1    
    69   24   67 1    
    70   24   68 1    
    71   24   69 1    
    72   25   70 1    
    73   27   71 1    
    74   28   72 1    
@<TRIPOS>SUBSTRUCTURE
     1 UNK         1 GROUP             0       ****    0 ROOT    
