@<TRIPOS>MOLECULE
7VTH_ligand1
53   55    1
SMALL
USER_CHARGES


@<TRIPOS>ATOM
      1 C1          7.2721   -2.4994   22.0327 C.ar      1 UNK         0.0000 
      2 C2          7.0568   -4.2759   23.7809 C.ar      1 UNK         0.0000 
      3 C3          7.4243   -5.5418   23.2587 C.ar      1 UNK         0.0000 
      4 C4          8.5334   -5.7196   22.2376 C.3       1 UNK         0.0000 
      5 C5          6.7354   -6.6925   23.6846 C.ar      1 UNK         0.0000 
      6 C6          4.6741    1.9255   19.6041 C.3       1 UNK         0.0000 
      7 N7          5.3060    0.6804   19.2231 N.am      1 UNK         0.0000 
      8 C8          6.0375    0.3993   18.1304 C.2       1 UNK         0.0000 
      9 O9          6.0892    1.0940   17.1180 O.2       1 UNK         0.0000 
     10 C10         6.9217   -0.8505   18.2283 C.3       1 UNK         0.0000 
     11 N11         7.0179   -1.3947   19.6044 N.pl3     1 UNK         0.0000 
     12 C12         6.2459   -2.4739   19.9428 C.ar      1 UNK         0.0000 
     13 O13         5.4436   -2.9622   19.1498 O.2       1 UNK         0.0000 
     14 N14         6.4241   -3.0340   21.2057 N.2       1 UNK         0.0000 
     15 N15         7.5706   -3.0868   23.2562 N.pl3     1 UNK         0.0000 
     16 C16         5.7048   -6.6162   24.6400 C.ar      1 UNK         0.0000 
     17 O17         5.0427   -7.7898   24.9273 O.3       1 UNK         0.0000 
     18 C18         3.9787   -7.7853   25.7724 C.3       1 UNK         0.0000 
     19 F19         2.8946   -7.2431   25.1659 F         1 UNK         0.0000 
     20 F20         3.6507   -9.0599   26.0868 F         1 UNK         0.0000 
     21 C21         5.4011   -5.3589   25.2169 C.ar      1 UNK         0.0000 
     22 C22         6.0780   -4.2002   24.7909 C.ar      1 UNK         0.0000 
     23 N23         7.9671   -1.3089   21.7238 N.pl3     1 UNK         0.0000 
     24 C24         8.9295   -0.7175   22.6790 C.3       1 UNK         0.0000 
     25 C25        10.3812   -1.1011   22.4161 C.ar      1 UNK         0.0000 
     26 C26        11.4107   -0.3482   23.0148 C.ar      1 UNK         0.0000 
     27 C27        12.7566   -0.6954   22.8003 C.ar      1 UNK         0.0000 
     28 F28        13.7356    0.0294   23.3792 F         1 UNK         0.0000 
     29 C29        13.0845   -1.7963   21.9909 C.ar      1 UNK         0.0000 
     30 F30        14.3741   -2.1452   21.8106 F         1 UNK         0.0000 
     31 C31        12.0682   -2.5433   21.3760 C.ar      1 UNK         0.0000 
     32 F32        12.3822   -3.5971   20.5860 F         1 UNK         0.0000 
     33 C33        10.7233   -2.2011   21.5953 C.ar      1 UNK         0.0000 
     34 C34         7.8201   -0.7386   20.4996 C.ar      1 UNK         0.0000 
     35 O35         8.3791    0.3252   20.2185 O.2       1 UNK         0.0000 
     36 H36         9.2261   -6.4895   22.5794 H         1 UNK         0.0000 
     37 H37         8.1201   -6.0422   21.2851 H         1 UNK         0.0000 
     38 H38         9.1126   -4.8130   22.0741 H         1 UNK         0.0000 
     39 H39         6.9921   -7.6526   23.2596 H         1 UNK         0.0000 
     40 H40         4.8201    2.0771   20.6738 H         1 UNK         0.0000 
     41 H41         5.1091    2.7877   19.1065 H         1 UNK         0.0000 
     42 H42         3.6005    1.8708   19.4383 H         1 UNK         0.0000 
     43 H43         5.3474   -0.0123   19.9573 H         1 UNK         0.0000 
     44 H44         7.9201   -0.5914   17.8727 H         1 UNK         0.0000 
     45 H45         6.5748   -1.5885   17.5082 H         1 UNK         0.0000 
     46 H46         8.1117   -2.5632   23.9281 H         1 UNK         0.0000 
     47 H47         4.2004   -7.2598   26.7002 H         1 UNK         0.0000 
     48 H48         4.6272   -5.2472   25.9604 H         1 UNK         0.0000 
     49 H49         5.7987   -3.2411   25.2037 H         1 UNK         0.0000 
     50 H50         8.6947   -0.9520   23.7169 H         1 UNK         0.0000 
     51 H51         8.8574    0.3714   22.6502 H         1 UNK         0.0000 
     52 H52        11.1733    0.4934   23.6464 H         1 UNK         0.0000 
     53 H53         9.9646   -2.8041   21.1252 H         1 UNK         0.0000 
@<TRIPOS>BOND
     1    1   14 ar   
     2    1   15 1    
     3    1   23 ar   
     4    2    3 ar   
     5    2   15 1    
     6    2   22 ar   
     7    3    4 1    
     8    3    5 ar   
     9    4   36 1    
    10    4   37 1    
    11    4   38 1    
    12    5   16 ar   
    13    5   39 1    
    14    6    7 1    
    15    6   40 1    
    16    6   41 1    
    17    6   42 1    
    18    7    8 am   BACKBONE|DICT|INTERRES
    19    7   43 1    
    20    8    9 2    
    21    8   10 1    
    22   10   11 1    
    23   10   44 1    
    24   10   45 1    
    25   11   12 ar   
    26   11   34 ar   
    27   12   13 2    
    28   12   14 ar   
    29   15   46 1    
    30   16   17 1    
    31   16   21 ar   
    32   17   18 1    
    33   18   19 1    
    34   18   20 1    
    35   18   47 1    
    36   21   22 ar   
    37   21   48 1    
    38   22   49 1    
    39   23   24 1    
    40   23   34 ar   
    41   24   25 1    
    42   24   50 1    
    43   24   51 1    
    44   25   26 ar   
    45   25   33 ar   
    46   26   27 ar   
    47   26   52 1    
    48   27   28 1    
    49   27   29 ar   
    50   29   30 1    
    51   29   31 ar   
    52   31   32 1    
    53   31   33 ar   
    54   33   53 1    
    55   34   35 2    
@<TRIPOS>SUBSTRUCTURE
     1 UNK         1 GROUP             0       ****    0 ROOT    
