@<TRIPOS>MOLECULE
7VU6_ligand1
54   58    1
SMALL
USER_CHARGES


@<TRIPOS>ATOM
      1 C1          8.0595   -2.6307   21.7525 C.ar      1 UNK         0.0000 
      2 C2          7.7320   -4.4150   23.3881 C.ar      1 UNK         0.0000 
      3 C3          6.7886   -4.3468   24.4356 C.ar      1 UNK         0.0000 
      4 C4          6.1013   -5.5266   24.7636 C.ar      1 UNK         0.0000 
      5 C5          4.2495    2.5327   18.6069 C.3       1 UNK         0.0000 
      6 N6          5.1783    1.5540   18.0379 N.pl3     1 UNK         0.0000 
      7 C7          5.5943    1.5188   16.6983 C.2       1 UNK         0.0000 
      8 N8          6.4166    0.5689   16.4696 N.2       1 UNK         0.0000 
      9 C9          6.5158   -0.0069   17.7162 C.2       1 UNK         0.0000 
     10 C10         7.3037   -1.0581   18.0149 C.2       1 UNK         0.0000 
     11 N11         7.5039   -1.5566   19.3056 N.pl3     1 UNK         0.0000 
     12 C12         6.8881   -2.7185   19.6316 C.ar      1 UNK         0.0000 
     13 O13         6.1141   -3.3405   18.9064 O.2       1 UNK         0.0000 
     14 N14         7.1944   -3.2482   20.9192 N.pl3     1 UNK         0.0000 
     15 N15         8.3488   -3.1898   22.9541 N.pl3     1 UNK         0.0000 
     16 C16         5.0924   -5.7760   25.6770 C.ar      1 UNK         0.0000 
     17 N17         4.7842   -7.1216   25.5173 N.pl3     1 UNK         0.0000 
     18 C18         3.7864   -7.9002   26.2145 C.3       1 UNK         0.0000 
     19 N19         5.5716   -7.7182   24.5522 N.2       1 UNK         0.0000 
     20 C20         6.3634   -6.7211   24.1228 C.ar      1 UNK         0.0000 
     21 C21         7.3546   -6.8200   23.1315 C.ar      1 UNK         0.0000 
     22 C22         8.0406   -5.6466   22.7555 C.ar      1 UNK         0.0000 
     23 Cl23        9.2544   -5.7409   21.5325 Cl        1 UNK         0.0000 
     24 N24         8.6166   -1.4379   21.4128 N.pl3     1 UNK         0.0000 
     25 C25         9.6450   -0.7795   22.2520 C.3       1 UNK         0.0000 
     26 C26        11.0611   -1.2771   21.9835 C.ar      1 UNK         0.0000 
     27 C27        12.1450   -0.5980   22.5773 C.ar      1 UNK         0.0000 
     28 F28        11.9160    0.4574   23.3918 F         1 UNK         0.0000 
     29 C29        13.4653   -1.0075   22.3166 C.ar      1 UNK         0.0000 
     30 C30        13.7111   -2.0971   21.4623 C.ar      1 UNK         0.0000 
     31 F31        14.9739   -2.5034   21.2226 F         1 UNK         0.0000 
     32 C32        12.6397   -2.7792   20.8636 C.ar      1 UNK         0.0000 
     33 F33        12.8834   -3.8217   20.0340 F         1 UNK         0.0000 
     34 C34        11.3185   -2.3817   21.1343 C.ar      1 UNK         0.0000 
     35 C35         8.2819   -0.8290   20.1476 C.ar      1 UNK         0.0000 
     36 O36         8.7200    0.2933   19.8845 O.2       1 UNK         0.0000 
     37 N37         5.7223    0.6357   18.6743 N.2       1 UNK         0.0000 
     38 H38         6.5580   -3.4131   24.9293 H         1 UNK         0.0000 
     39 H39         3.6089    2.0259   19.3276 H         1 UNK         0.0000 
     40 H40         4.8338    3.3127   19.0964 H         1 UNK         0.0000 
     41 H41         3.6479    2.9581   17.8028 H         1 UNK         0.0000 
     42 H42         5.2165    2.2615   15.9980 H         1 UNK         0.0000 
     43 H43         7.9208   -1.5494   17.2765 H         1 UNK         0.0000 
     44 H44         6.7756   -4.1000   21.2663 H         1 UNK         0.0000 
     45 H45         8.7792   -2.5826   23.6410 H         1 UNK         0.0000 
     46 H46         4.5655   -5.1639   26.3947 H         1 UNK         0.0000 
     47 H47         3.4742   -8.7500   25.6049 H         1 UNK         0.0000 
     48 H48         4.2018   -8.2627   27.1551 H         1 UNK         0.0000 
     49 H49         2.9154   -7.2803   26.4271 H         1 UNK         0.0000 
     50 H50         7.5822   -7.7637   22.6607 H         1 UNK         0.0000 
     51 H51         9.3928   -0.8899   23.3019 H         1 UNK         0.0000 
     52 H52         9.6375    0.3018   22.1117 H         1 UNK         0.0000 
     53 H53        14.2925   -0.4819   22.7615 H         1 UNK         0.0000 
     54 H54        10.5175   -2.9324   20.6646 H         1 UNK         0.0000 
@<TRIPOS>BOND
     1    1   14 ar   
     2    1   15 1    
     3    1   24 ar   
     4    2    3 ar   
     5    2   15 1    
     6    2   22 ar   
     7    3    4 ar   
     8    3   38 1    
     9    4   16 ar   
    10    4   20 ar   
    11    5    6 1    
    12    5   39 1    
    13    5   40 1    
    14    5   41 1    
    15    6    7 1    
    16    6   37 2    
    17    7    8 2    
    18    7   42 1    
    19    8    9 1    
    20    9   10 2    
    21    9   37 1    
    22   10   11 1    
    23   10   43 1    
    24   11   12 ar   
    25   11   35 ar   
    26   12   13 2    
    27   12   14 ar   
    28   14   44 1    
    29   15   45 1    
    30   16   17 ar   
    31   16   46 1    
    32   17   18 1    
    33   17   19 ar   
    34   18   47 1    
    35   18   48 1    
    36   18   49 1    
    37   19   20 ar   
    38   20   21 ar   
    39   21   22 ar   
    40   21   50 1    
    41   22   23 1    
    42   24   25 1    
    43   24   35 ar   
    44   25   26 1    
    45   25   51 1    
    46   25   52 1    
    47   26   27 ar   
    48   26   34 ar   
    49   27   28 1    
    50   27   29 ar   
    51   29   30 ar   
    52   29   53 1    
    53   30   31 1    
    54   30   32 ar   
    55   32   33 1    
    56   32   34 ar   
    57   34   54 1    
    58   35   36 2    
@<TRIPOS>SUBSTRUCTURE
     1 UNK         1 GROUP             0       ****    0 ROOT    
