@<TRIPOS>MOLECULE
7VVP_ligand
67   69    1
SMALL
USER_CHARGES


@<TRIPOS>ATOM
      1 C10        12.1608    7.4158   25.9493 C.ar      1 80I         0.0000 
      2 C13        13.1750    6.1408   28.2791 C.3       1 80I         0.0000 
      3 C15        11.1367   -0.1518   22.6482 C.3       1 80I         0.0000 
      4 C20         6.5013    0.8014   19.9718 C.2       1 80I         0.0000 
      5 C21         6.2299    1.6123   18.8045 C.2       1 80I         0.0000 
      6 C24         5.8514    1.3409   21.0104 C.2       1 80I         0.0000 
      7 C26         7.2534   -2.6291   21.2401 C.2       1 80I         0.0000 
      8 C02        11.1016    2.3427   22.6786 C.2       1 80I         0.0000 
      9 C03        11.3893    3.5536   23.4776 C.ar      1 80I         0.0000 
     10 C05        11.9223    3.7617   24.7241 C.ar      1 80I         0.0000 
     11 C06        11.9156    5.1805   24.9613 C.ar      1 80I         0.0000 
     12 C07        11.3842    5.8130   23.8034 C.ar      1 80I         0.0000 
     13 C08        11.2555    7.2076   23.6975 C.ar      1 80I         0.0000 
     14 C09        11.6453    8.0116   24.7814 C.ar      1 80I         0.0000 
     15 C11        12.3051    6.0065   26.0440 C.ar      1 80I         0.0000 
     16 C16         9.6185   -0.4144   22.6306 C.2       1 80I         0.0000 
     17 C18         7.6711   -1.1452   21.2569 C.3       1 80I         0.0000 
     18 C19         7.3814   -0.4377   19.8983 C.3       1 80I         0.0000 
     19 C23         5.0846    2.5616   20.6044 C.3       1 80I         0.0000 
     20 C27         7.7684   -3.5245   22.3673 C.3       1 80I         0.0000 
     21 C35        11.8334   -1.2664   23.4664 C.3       1 80I         0.0000 
     22 C36        13.3412   -1.0638   23.7321 C.3       1 80I         0.0000 
     23 C37        13.9107   -2.2074   24.5809 C.3       1 80I         0.0000 
     24 C38        14.1355   -0.9129   22.4306 C.3       1 80I         0.0000 
     25 N04        11.0771    4.7872   22.9383 N.pl3     1 80I         0.0000 
     26 N14        11.4187    1.1642   23.2391 N.am      1 80I         0.0000 
     27 N17         9.1054   -0.9958   21.5320 N.am      1 80I         0.0000 
     28 N22         5.4088    2.5994   19.1913 N.am      1 80I         0.0000 
     29 O01        10.5739    2.4351   21.5698 O.2       1 80I         0.0000 
     30 O12        12.8176    5.3591   27.1493 O.3       1 80I         0.0000 
     31 O25         6.6670    1.4728   17.6666 O.2       1 80I         0.0000 
     32 O28         7.3589   -2.9935   23.6153 O.3       1 80I         0.0000 
     33 O30         6.3156   -5.0316   24.6397 O.co2     1 80I         0.0000 
     34 O31         4.9700   -3.6012   23.0589 O.co2     1 80I         0.0000 
     35 O32         5.5537   -2.7283   25.3455 O.co2     1 80I         0.0000 
     36 O33         6.4947   -3.1186   20.4014 O.2       1 80I         0.0000 
     37 O34         8.9340   -0.0765   23.5964 O.2       1 80I         0.0000 
     38 P29         5.9655   -3.6255   24.1975 P.3       1 80I         0.0000 
     39 HC10       12.4485    8.0645   26.7617 H         1 80I         0.0000 
     40 H131       13.5497    5.4830   29.0626 H         1 80I         0.0000 
     41 H132       13.9648    6.8537   28.0420 H         1 80I         0.0000 
     42 H133       12.3140    6.6762   28.6817 H         1 80I         0.0000 
     43 HC15       11.5179   -0.1599   21.6272 H         1 80I         0.0000 
     44 HC24        5.8338    0.9853   22.0290 H         1 80I         0.0000 
     45 HC05       12.2643    3.0150   25.4166 H         1 80I         0.0000 
     46 HC08       10.8545    7.6529   22.7994 H         1 80I         0.0000 
     47 HC09       11.5474    9.0843   24.7227 H         1 80I         0.0000 
     48 HC18        7.0942   -0.6969   22.0616 H         1 80I         0.0000 
     49 H191        8.3173   -0.1320   19.4228 H         1 80I         0.0000 
     50 H192        6.9197   -1.0991   19.1633 H         1 80I         0.0000 
     51 H231        5.4410    3.4518   21.1234 H         1 80I         0.0000 
     52 H232        4.0137    2.4366   20.7673 H         1 80I         0.0000 
     53 H271        8.8578   -3.5609   22.3356 H         1 80I         0.0000 
     54 H272        7.4090   -4.5454   22.2348 H         1 80I         0.0000 
     55 H351       11.6943   -2.2156   22.9443 H         1 80I         0.0000 
     56 H352       11.3276   -1.3905   24.4243 H         1 80I         0.0000 
     57 HC36       13.4777   -0.1498   24.3128 H         1 80I         0.0000 
     58 H371       14.9560   -2.0289   24.8360 H         1 80I         0.0000 
     59 H372       13.3601   -2.3241   25.5143 H         1 80I         0.0000 
     60 H373       13.8569   -3.1509   24.0428 H         1 80I         0.0000 
     61 H381       15.2005   -0.9902   22.6139 H         1 80I         0.0000 
     62 H382       13.8730   -1.6768   21.6983 H         1 80I         0.0000 
     63 H383       13.9678    0.0702   21.9960 H         1 80I         0.0000 
     64 HN04       10.6975    4.8891   22.0051 H         1 80I         0.0000 
     65 HN14       11.8346    1.1759   24.1595 H         1 80I         0.0000 
     66 HN17        9.7457   -1.2804   20.8021 H         1 80I         0.0000 
     67 HN22        5.0819    3.3344   18.5789 H         1 80I         0.0000 
@<TRIPOS>BOND
     1    1   14 ar   
     2    1   15 ar   
     3    1   39 1    
     4    2   30 1    
     5    2   40 1    
     6    2   41 1    
     7    2   42 1    
     8    3   16 1    
     9    3   21 1    
    10    3   26 1    
    11    3   43 1    
    12    4    5 1    
    13    4    6 2    
    14    4   18 1    
    15    5   28 am   BACKBONE|DICT|INTERRES
    16    5   31 2    
    17    6   19 1    
    18    6   44 1    
    19    7   17 1    
    20    7   20 1    
    21    7   36 2    
    22    8    9 1    
    23    8   26 am   BACKBONE|DICT|INTERRES
    24    8   29 2    
    25    9   10 ar   
    26    9   25 ar   
    27   10   11 ar   
    28   10   45 1    
    29   11   12 ar   
    30   11   15 ar   
    31   12   13 ar   
    32   12   25 ar   
    33   13   14 ar   
    34   13   46 1    
    35   14   47 1    
    36   15   30 1    
    37   16   27 am   BACKBONE|DICT|INTERRES
    38   16   37 2    
    39   17   18 1    
    40   17   27 1    
    41   17   48 1    
    42   18   49 1    
    43   18   50 1    
    44   19   28 1    
    45   19   51 1    
    46   19   52 1    
    47   20   32 1    
    48   20   53 1    
    49   20   54 1    
    50   21   22 1    
    51   21   55 1    
    52   21   56 1    
    53   22   23 1    
    54   22   24 1    
    55   22   57 1    
    56   23   58 1    
    57   23   59 1    
    58   23   60 1    
    59   24   61 1    
    60   24   62 1    
    61   24   63 1    
    62   25   64 1    
    63   26   65 1    
    64   27   66 1    
    65   28   67 1    
    66   32   38 1    
    67   33   38 2    
    68   34   38 1    
    69   35   38 1    
@<TRIPOS>SUBSTRUCTURE
     1 80I         1 GROUP             0 B     ****    0 ROOT    
