@<TRIPOS>MOLECULE
7VVT_ligand1
37   38    1
SMALL
USER_CHARGES


@<TRIPOS>ATOM
      1 N1          6.0511   -5.2885   22.1640 N.am      1 UNK         0.0000 
      2 N2         10.4921   -4.1189   23.7024 N.am      1 UNK         0.0000 
      3 C3          6.5545   -4.1505   24.3777 C.2       1 UNK         0.0000 
      4 C4          8.4010   -4.7883   22.6601 C.3       1 UNK         0.0000 
      5 C5          9.4613   -3.7200   22.9349 C.2       1 UNK         0.0000 
      6 C6         11.7386   -3.4761   23.9127 C.ar      1 UNK         0.0000 
      7 C7         12.5178   -3.9159   25.0049 C.ar      1 UNK         0.0000 
      8 C8         14.2977   -2.3814   24.3767 C.ar      1 UNK         0.0000 
      9 C9          5.7516   -5.1665   20.8467 C.2       1 UNK         0.0000 
     10 C10         6.9319   -4.3508   22.8915 C.3       1 UNK         0.0000 
     11 C11        13.5291   -1.9356   23.2832 C.ar      1 UNK         0.0000 
     12 C12        12.2581   -2.4865   23.0461 C.ar      1 UNK         0.0000 
     13 C13         5.9649   -3.8237   20.1452 C.3       1 UNK         0.0000 
     14 C14         5.5836   -6.4370   22.9467 C.3       1 UNK         0.0000 
     15 C15         4.8368   -5.9384   24.1916 C.3       1 UNK         0.0000 
     16 C16        13.7921   -3.3690   25.2383 C.ar      1 UNK         0.0000 
     17 N17         5.5901   -4.9170   24.9105 N.am      1 UNK         0.0000 
     18 O18         7.1280   -3.2945   25.0463 O.2       1 UNK         0.0000 
     19 O19         9.3274   -2.5890   22.4716 O.2       1 UNK         0.0000 
     20 O20         5.2839   -6.0893   20.1823 O.2       1 UNK         0.0000 
     21 Cl21       14.1349   -0.7097   22.2344 Cl        1 UNK         0.0000 
     22 H22        10.3933   -5.0204   24.1444 H         1 UNK         0.0000 
     23 H23         8.6117   -5.6861   23.2443 H         1 UNK         0.0000 
     24 H24         8.5383   -5.0794   21.6183 H         1 UNK         0.0000 
     25 H25        12.1452   -4.6891   25.6602 H         1 UNK         0.0000 
     26 H26        15.2713   -1.9632   24.5622 H         1 UNK         0.0000 
     27 H27         6.7987   -3.3499   22.4805 H         1 UNK         0.0000 
     28 H28        11.7088   -2.1473   22.1802 H         1 UNK         0.0000 
     29 H29         5.7566   -3.9066   19.0781 H         1 UNK         0.0000 
     30 H30         5.2937   -3.0714   20.5597 H         1 UNK         0.0000 
     31 H31         6.9888   -3.4723   20.2589 H         1 UNK         0.0000 
     32 H32         6.4415   -7.0462   23.2301 H         1 UNK         0.0000 
     33 H33         4.9128   -7.0873   22.3888 H         1 UNK         0.0000 
     34 H34         4.6254   -6.7703   24.8628 H         1 UNK         0.0000 
     35 H35         3.8756   -5.5115   23.9016 H         1 UNK         0.0000 
     36 H36        14.3830   -3.7101   26.0769 H         1 UNK         0.0000 
     37 H37         5.3568   -4.7701   25.8816 H         1 UNK         0.0000 
@<TRIPOS>BOND
     1    1    9 am   BACKBONE|DICT|INTERRES
     2    1   10 1    
     3    1   14 1    
     4    2    5 am   BACKBONE|DICT|INTERRES
     5    2    6 1    
     6    2   22 1    
     7    3   10 1    
     8    3   17 am   BACKBONE|DICT|INTERRES
     9    3   18 2    
    10    4    5 1    
    11    4   10 1    
    12    4   23 1    
    13    4   24 1    
    14    5   19 2    
    15    6    7 ar   
    16    6   12 ar   
    17    7   16 ar   
    18    7   25 1    
    19    8   11 ar   
    20    8   16 ar   
    21    8   26 1    
    22    9   13 1    
    23    9   20 2    
    24   10   27 1    
    25   11   12 ar   
    26   11   21 1    
    27   12   28 1    
    28   13   29 1    
    29   13   30 1    
    30   13   31 1    
    31   14   15 1    
    32   14   32 1    
    33   14   33 1    
    34   15   17 1    
    35   15   34 1    
    36   15   35 1    
    37   16   36 1    
    38   17   37 1    
@<TRIPOS>SUBSTRUCTURE
     1 UNK         1 GROUP             0       ****    0 ROOT    
