@<TRIPOS>MOLECULE
7X6K_ligand1
18   19    1
SMALL
USER_CHARGES


@<TRIPOS>ATOM
      1 N1         10.7274   -2.8935   21.5804 N.pl3     1 UNK         0.0000 
      2 C2         11.6042    0.0596   23.7445 C.ar      1 UNK         0.0000 
      3 C3         10.7566   -0.9028   23.1668 C.ar      1 UNK         0.0000 
      4 C4         11.2968   -1.8532   22.2836 C.ar      1 UNK         0.0000 
      5 C5         11.6872   -3.5555   20.8371 C.ar      1 UNK         0.0000 
      6 C6         12.9056   -2.9596   21.0298 C.ar      1 UNK         0.0000 
      7 C7         12.6847   -1.8813   21.9528 C.ar      1 UNK         0.0000 
      8 C8         13.5094   -0.9048   22.5542 C.ar      1 UNK         0.0000 
      9 C9         12.9769    0.0575   23.4348 C.ar      1 UNK         0.0000 
     10 C10        11.2990   -4.6995   20.0382 C.2       1 UNK         0.0000 
     11 O11        12.0544   -5.2426   19.2416 O.2       1 UNK         0.0000 
     12 H12         9.7536   -3.1614   21.5944 H         1 UNK         0.0000 
     13 H13        11.2026    0.7987   24.4215 H         1 UNK         0.0000 
     14 H14         9.7013   -0.9105   23.3967 H         1 UNK         0.0000 
     15 H15        13.8523   -3.2419   20.5931 H         1 UNK         0.0000 
     16 H16        14.5605   -0.8841   22.3244 H         1 UNK         0.0000 
     17 H17        13.6215    0.8053   23.8696 H         1 UNK         0.0000 
     18 H18        10.2938   -5.0624   20.2320 H         1 UNK         0.0000 
@<TRIPOS>BOND
     1    1    4 ar   
     2    1    5 ar   
     3    1   12 1    
     4    2    3 ar   
     5    2    9 ar   
     6    2   13 1    
     7    3    4 ar   
     8    3   14 1    
     9    4    7 ar   
    10    5    6 ar   
    11    5   10 1    
    12    6    7 ar   
    13    6   15 1    
    14    7    8 ar   
    15    8    9 ar   
    16    8   16 1    
    17    9   17 1    
    18   10   11 2    
    19   10   18 1    
@<TRIPOS>SUBSTRUCTURE
     1 UNK         1 GROUP             0       ****    0 ROOT    
