@<TRIPOS>MOLECULE
8ACD_ligand
52   55    1
SMALL
USER_CHARGES


@<TRIPOS>ATOM
      1 N1          6.0545   -1.3461   21.7520 N.am      1 UNK         0.0000 
      2 N2          4.0193    0.3466   20.2224 N.pl3     1 UNK         0.0000 
      3 C3         10.0058   -1.7083   23.2077 C.ar      1 UNK         0.0000 
      4 C4          7.8351   -2.6368   22.8426 C.3       1 UNK         0.0000 
      5 C5          6.3333   -2.3100   22.8209 C.3       1 UNK         0.0000 
      6 C6          6.7846   -0.0897   21.9807 C.3       1 UNK         0.0000 
      7 C7          8.3098   -0.3561   21.9652 C.3       1 UNK         0.0000 
      8 C8         10.2469    2.4541   23.7458 C.3       1 UNK         0.0000 
      9 C9         13.5097    1.0073   24.9849 C.2       1 UNK         0.0000 
     10 C10         5.3100   -1.6632   20.6636 C.2       1 UNK         0.0000 
     11 C11         3.6004    1.4031   19.4156 C.ar      1 UNK         0.0000 
     12 C12        11.0337   -1.4735   22.2632 C.ar      1 UNK         0.0000 
     13 N13         8.6494   -1.4209   22.9350 N.pl3     1 UNK         0.0000 
     14 C14        12.3774   -1.7580   22.5663 C.ar      1 UNK         0.0000 
     15 O15         9.2773    1.6869   21.1674 O.2       1 UNK         0.0000 
     16 C16        12.7118   -2.2691   23.8363 C.ar      1 UNK         0.0000 
     17 C17        11.6345    1.9543   23.9732 C.2       1 UNK         0.0000 
     18 C18        12.1478    1.3994   25.1173 C.2       1 UNK         0.0000 
     19 C19        14.0148    1.2494   23.7365 C.2       1 UNK         0.0000 
     20 C20         4.9771   -0.5512   19.7926 C.ar      1 UNK         0.0000 
     21 C21         5.5582   -0.4538   18.5704 C.ar      1 UNK         0.0000 
     22 C22         5.1934    0.6446   17.6797 C.ar      1 UNK         0.0000 
     23 C23        11.6998   -2.5156   24.7828 C.ar      1 UNK         0.0000 
     24 C24        10.3564   -2.2400   24.4677 C.ar      1 UNK         0.0000 
     25 C25         9.0179    0.9990   22.1524 C.2       1 UNK         0.0000 
     26 N26         9.3642    1.3513   23.3982 N.am      1 UNK         0.0000 
     27 N27         4.2142    1.5100   18.1706 N.pl3     1 UNK         0.0000 
     28 O28         2.7370    2.1945   19.7821 O.2       1 UNK         0.0000 
     29 O29         5.6884    0.8525   16.5797 O.2       1 UNK         0.0000 
     30 O30         4.8891   -2.8003   20.4572 O.2       1 UNK         0.0000 
     31 S31        12.8197    1.9639   22.6937 S.3       1 UNK         0.0000 
     32 Cl32       13.5922   -1.4749   21.3695 Cl        1 UNK         0.0000 
     33 Cl33       14.3510   -2.5947   24.2522 Cl        1 UNK         0.0000 
     34 H34         3.6052    0.2642   21.1451 H         1 UNK         0.0000 
     35 H35         8.1104   -3.1788   21.9365 H         1 UNK         0.0000 
     36 H36         8.0336   -3.3079   23.6780 H         1 UNK         0.0000 
     37 H37         5.7594   -3.2328   22.7221 H         1 UNK         0.0000 
     38 H38         6.0309   -1.8765   23.7750 H         1 UNK         0.0000 
     39 H39         6.4805    0.3138   22.9491 H         1 UNK         0.0000 
     40 H40         6.5471    0.6917   21.2589 H         1 UNK         0.0000 
     41 H41         8.5696   -0.7253   20.9706 H         1 UNK         0.0000 
     42 H42        10.2416    3.2285   22.9770 H         1 UNK         0.0000 
     43 H43         9.8694    2.9254   24.6524 H         1 UNK         0.0000 
     44 H44        14.0664    0.5602   25.7957 H         1 UNK         0.0000 
     45 H45        10.8044   -1.0588   21.2970 H         1 UNK         0.0000 
     46 H46        11.5943    1.2606   26.0353 H         1 UNK         0.0000 
     47 H47        15.0067    1.0453   23.3609 H         1 UNK         0.0000 
     48 H48         6.2976   -1.1723   18.2436 H         1 UNK         0.0000 
     49 H49        11.9517   -2.9139   25.7537 H         1 UNK         0.0000 
     50 H50         9.5943   -2.4232   25.2114 H         1 UNK         0.0000 
     51 H51         9.0921    0.7352   24.1537 H         1 UNK         0.0000 
     52 H52         3.9550    2.3030   17.5928 H         1 UNK         0.0000 
@<TRIPOS>BOND
     1    1    5 1    
     2    1    6 1    
     3    1   10 am   BACKBONE|DICT|INTERRES
     4    2   11 ar   
     5    2   20 ar   
     6    2   34 1    
     7    3   12 ar   
     8    3   13 1    
     9    3   24 ar   
    10    4    5 1    
    11    4   13 1    
    12    4   35 1    
    13    4   36 1    
    14    5   37 1    
    15    5   38 1    
    16    6    7 1    
    17    6   39 1    
    18    6   40 1    
    19    7   13 1    
    20    7   25 1    
    21    7   41 1    
    22    8   17 1    
    23    8   26 1    
    24    8   42 1    
    25    8   43 1    
    26    9   18 1    
    27    9   19 2    
    28    9   44 1    
    29   10   20 1    
    30   10   30 2    
    31   11   27 ar   
    32   11   28 2    
    33   12   14 ar   
    34   12   45 1    
    35   14   16 ar   
    36   14   32 1    
    37   15   25 2    
    38   16   23 ar   
    39   16   33 1    
    40   17   18 2    
    41   17   31 1    
    42   18   46 1    
    43   19   31 1    
    44   19   47 1    
    45   20   21 ar   
    46   21   22 ar   
    47   21   48 1    
    48   22   27 ar   
    49   22   29 2    
    50   23   24 ar   
    51   23   49 1    
    52   24   50 1    
    53   25   26 am   BACKBONE|DICT|INTERRES
    54   26   51 1    
    55   27   52 1    
@<TRIPOS>SUBSTRUCTURE
     1 UNK         1 GROUP             0       ****    0 ROOT    
